
This summary file was generated by TurbSim (from OpenFAST-v3.5.0) on 23-Apr-2024 at 22:02:58.


Runtime Options:

   2318573  Random seed #1
    RANLUX  Type of random number generator
         F  Output binary HH turbulence parameters?
         F  Output formatted turbulence parameters?
         F  Output AeroDyn HH files?
         T  Output AeroDyn FF files?
         F  Output BLADED FF files?
         F  Output tower data?
         F  Output HAWC FF files?
         F  Output formatted FF files?
         T  Output coherent turbulence time step file?
 0 -  NONE  IEC turbulence models scaled to exact specified standard deviation


Turbine/Model Specifications:

        61  Vertical grid-point matrix dimension
        59  Horizontal grid-point matrix dimension
     0.300  Time step [seconds]
    20.000  Analysis time [seconds]
    20.000  Usable output time [seconds]
   156.000  Hub height [m]
   300.000  Grid height [m]
   290.000  Grid width [m]
     0.000  Vertical flow angle [degrees]
     0.000  Horizontal flow angle [degrees]


Meteorological Boundary Conditions:

    TIMESR  User-input time series spectral model
       N/A  IEC standard
       N/A  IEC turbulence characteristic
       N/A  IEC turbulence type
       N/A  IEC Extreme Turbulence Model (ETM) "c" parameter [m/s]
       PL   Wind profile type
   150.000  Reference height [m]
     5.245  Reference wind speed [m/s]
       N/A  Jet height [m]
     0.120  Power law exponent
     0.030  Surface roughness length [m]


Non-IEC Meteorological Boundary Conditions:

    45.000  Site latitude [degrees]
     0.050  Gradient Richardson number
     0.237  Friction or shear velocity [m/s]
       N/A  Mixing layer depth [m]
       N/A  Mean hub u'w' Reynolds stress
       N/A  Mean hub u'v' Reynolds stress
       N/A  Mean hub v'w' Reynolds stress


Spatial Coherence Models:

       IEC  u-component coherence model
       IEC  v-component coherence model
       IEC  w-component coherence model
(   12.000, 0.353E-03)  u-component coherence parameters
(   12.000, 0.353E-03)  v-component coherence parameters
(   12.000, 0.353E-03)  w-component coherence parameters
       N/A  Coherence exponent


Coherent Turbulence Scaling Parameters:

.\EventData
            Name of the path containing the coherent turbulence data files
       les  Type of coherent turbulence data files
     1.000  Disturbance scale (ratio of wave height to rotor diameter)
     0.500  Fractional location of tower centerline from right
     0.500  Fractional location of hub height from the bottom of the dataset
    30.000  Minimum start time for coherent structures [seconds]


Profiles from User-Defined Time-Series Input:

  Height   Wind Speed   Horizontal Angle   Vertical Angle
   (m)        (m/s)          (deg)              (deg)    
  ------   ----------   ----------------   --------------
  141.00       5.21           0.00               -0.00


You have requested that the following file(s) be generated:

   /projects/rlfarmcontr/RLControl_Parallel/RLControl/windfarm_v1p0/FFSetup/../FFSim/Sim_1713930974.7847342/Cond00_v05.2_PL0.12_TI10/Case1_wdirp223_yawCase2/Seed_0/TurbSim/HighT3.bts (AeroDyn/TurbSim full-field wind file)


Turbulence Simulation Scaling Parameter Summary:

   Turbulence model used                            =  User-input time series
   Gradient Richardson number                       =    0.050
   Monin-Obukhov (M-O) z/L parameter                =    0.067
   Monin-Obukhov (M-O) length scale                 = 2340.000 m
   Mean wind speed at hub height                    =    5.270 m/s

   Wind profile type                                =  Power law
   Power law exponent                               =    0.120
   Mean shear across rotor disk                     =    0.006 (m/s)/m
   Assumed rotor diameter                           =  290.000 m
   Surface roughness length                         =    0.030 m

   Nyquist frequency of turbulent wind field        =    1.667 Hz

   Number of time steps in the FFT                  =       68
   Number of time steps output                      =       68
   Number of points simulated                       =     3600


Mean Flow Angles:

   Vertical   =   0.0 degrees
   Horizontal =   0.0 degrees

Mean Wind Speed Profile:

   Height    Wind Speed   Horizontal Angle  Vertical Angle  U-comp (X)   V-comp (Y)   W-comp (Z)
     (m)        (m/s)         (degrees)       (degrees)       (m/s)        (m/s)        (m/s)   
   ------    ----------   ----------------  --------------  ----------   ----------   ----------
    301.0        5.70            0.00            0.00          5.70         0.00         0.00
    296.0        5.69            0.00            0.00          5.69         0.00         0.00
    291.0        5.68            0.00            0.00          5.68         0.00         0.00
    286.0        5.67            0.00            0.00          5.67         0.00         0.00
    281.0        5.66            0.00            0.00          5.66         0.00         0.00
    276.0        5.64            0.00            0.00          5.64         0.00         0.00
    271.0        5.63            0.00            0.00          5.63         0.00         0.00
    266.0        5.62            0.00            0.00          5.62         0.00         0.00
    261.0        5.61            0.00            0.00          5.61         0.00         0.00
    256.0        5.59            0.00            0.00          5.59         0.00         0.00
    251.0        5.58            0.00            0.00          5.58         0.00         0.00
    246.0        5.57            0.00            0.00          5.57         0.00         0.00
    241.0        5.55            0.00            0.00          5.55         0.00         0.00
    236.0        5.54            0.00            0.00          5.54         0.00         0.00
    231.0        5.52            0.00            0.00          5.52         0.00         0.00
    226.0        5.51            0.00            0.00          5.51         0.00         0.00
    221.0        5.49            0.00            0.00          5.49         0.00         0.00
    216.0        5.48            0.00            0.00          5.48         0.00         0.00
    211.0        5.46            0.00            0.00          5.46         0.00         0.00
    206.0        5.45            0.00            0.00          5.45         0.00         0.00
    201.0        5.43            0.00            0.00          5.43         0.00         0.00
    196.0        5.42            0.00            0.00          5.42         0.00         0.00
    191.0        5.40            0.00            0.00          5.40         0.00         0.00
    186.0        5.38            0.00            0.00          5.38         0.00         0.00
    181.0        5.36            0.00            0.00          5.36         0.00         0.00
    176.0        5.35            0.00            0.00          5.35         0.00         0.00
    171.0        5.33            0.00            0.00          5.33         0.00         0.00
    166.0        5.31            0.00            0.00          5.31         0.00         0.00
    161.0        5.29            0.00            0.00          5.29         0.00         0.00
    156.0        5.27            0.00            0.00          5.27         0.00         0.00
    151.0        5.25            0.00            0.00          5.25         0.00         0.00
    146.0        5.23            0.00            0.00          5.23         0.00         0.00
    141.0        5.21            0.00            0.00          5.21         0.00         0.00
    136.0        5.18            0.00            0.00          5.18         0.00         0.00
    131.0        5.16            0.00            0.00          5.16         0.00         0.00
    126.0        5.14            0.00            0.00          5.14         0.00         0.00
    121.0        5.11            0.00            0.00          5.11         0.00         0.00
    116.0        5.09            0.00            0.00          5.09         0.00         0.00
    111.0        5.06            0.00            0.00          5.06         0.00         0.00
    106.0        5.03            0.00            0.00          5.03         0.00         0.00
    101.0        5.00            0.00            0.00          5.00         0.00         0.00
     96.0        4.97            0.00            0.00          4.97         0.00         0.00
     91.0        4.94            0.00            0.00          4.94         0.00         0.00
     86.0        4.91            0.00            0.00          4.91         0.00         0.00
     81.0        4.87            0.00            0.00          4.87         0.00         0.00
     76.0        4.83            0.00            0.00          4.83         0.00         0.00
     71.0        4.79            0.00            0.00          4.79         0.00         0.00
     66.0        4.75            0.00            0.00          4.75         0.00         0.00
     61.0        4.71            0.00            0.00          4.71         0.00         0.00
     56.0        4.66            0.00            0.00          4.66         0.00         0.00
     51.0        4.61            0.00            0.00          4.61         0.00         0.00
     46.0        4.55            0.00            0.00          4.55         0.00         0.00
     41.0        4.49            0.00            0.00          4.49         0.00         0.00
     36.0        4.42            0.00            0.00          4.42         0.00         0.00
     31.0        4.34            0.00            0.00          4.34         0.00         0.00
     26.0        4.25            0.00            0.00          4.25         0.00         0.00
     21.0        4.14            0.00            0.00          4.14         0.00         0.00
     16.0        4.01            0.00            0.00          4.01         0.00         0.00
     11.0        3.83            0.00            0.00          3.83         0.00         0.00
      6.0        3.56            0.00            0.00          3.56         0.00         0.00
      1.0        2.87            0.00            0.00          2.87         0.00         0.00


Harvested Random Seeds after Generation of the Random Numbers:

      3411900 K 1
            0 K 2


Hub-Height Simulated Turbulence Statistical Summary:

   Type of Wind        Min (m/s)   Mean (m/s)    Max (m/s)  Sigma (m/s)       TI (%)
   ----------------    ---------   ----------    ---------  -----------       ------
   Longitudinal (u)         4.87         5.27         5.72        0.200        3.801
   Lateral (v)             -0.53        -0.00         0.37        0.197        3.729
   Vertical (w)            -0.44         0.00         0.37        0.197        3.735
   U component              4.87         5.27         5.72        0.200        3.801
   V component             -0.53        -0.00         0.37        0.197        3.729
   W component             -0.44         0.00         0.37        0.197        3.735
   Horizontal (U&V)         4.88         5.27         5.73        0.199        3.777
   Total                    4.89         5.28         5.73        0.199        3.765

                       Min Reynolds     Mean Reynolds    Max Reynolds    Correlation
   Product             Stress (m/s)^2   Stress (m/s)^2   Stress (m/s)^2  Coefficient
   ----------------    --------------   --------------   --------------  -----------
   u'w'                     -0.040             0.014             0.111         0.360
   u'v'                     -0.146             0.001             0.122         0.035
   v'w'                     -0.115             0.002             0.116         0.042


   Friction Velocity (Ustar)  =      0.119 m/s
   Maximum Instantaneous TKE  =      0.183 (m/s)^2
   Maximum Instantaneous CTKE =      0.103 (m/s)^2


Grid Point Variance Summary:

   Y-coord -145.00 -140.00 -135.00 -130.00 -125.00 -120.00 -115.00 -110.00 -105.00 -100.00  -95.00  -90.00  -85.00  -80.00  -75.00  -70.00  -65.00  -60.00  -55.00  -50.00  -45.00  -40.00  -35.00  -30.00  -25.00  -20.00  -15.00  -10.00   -5.00    0.00    5.00   10.00   15.00   20.00   25.00   30.00   35.00   40.00   45.00   50.00   55.00   60.00   65.00   70.00   75.00   80.00   85.00   90.00   95.00  100.00  105.00  110.00  115.00  120.00  125.00  130.00  135.00  140.00  145.00

   Height   Standard deviation at grid points for the u component:
   301.00    0.168   0.250   0.187   0.241   0.231   0.210   0.211   0.193   0.217   0.301   0.310   0.193   0.188   0.276   0.186   0.254   0.178   0.193   0.170   0.183   0.190   0.235   0.212   0.215   0.230   0.228   0.234   0.229   0.238   0.253   0.247   0.252   0.286   0.218   0.274   0.286   0.170   0.262   0.235   0.230   0.200   0.314   0.211   0.229   0.229   0.289   0.240   0.281   0.341   0.262   0.266   0.227   0.236   0.170   0.203   0.161   0.226   0.288   0.190
   296.00    0.265   0.273   0.296   0.259   0.238   0.211   0.212   0.185   0.194   0.227   0.238   0.201   0.213   0.224   0.211   0.232   0.213   0.249   0.209   0.238   0.213   0.250   0.178   0.197   0.249   0.210   0.204   0.263   0.204   0.229   0.241   0.332   0.363   0.173   0.258   0.263   0.258   0.223   0.281   0.303   0.229   0.303   0.295   0.246   0.302   0.188   0.301   0.226   0.290   0.235   0.206   0.183   0.186   0.208   0.213   0.173   0.255   0.284   0.205
   291.00    0.199   0.213   0.242   0.278   0.278   0.211   0.180   0.184   0.193   0.166   0.284   0.212   0.192   0.241   0.214   0.208   0.184   0.214   0.323   0.195   0.212   0.176   0.218   0.206   0.262   0.199   0.194   0.207   0.213   0.260   0.281   0.314   0.300   0.249   0.251   0.246   0.268   0.259   0.340   0.188   0.259   0.225   0.337   0.249   0.342   0.277   0.222   0.271   0.332   0.203   0.184   0.186   0.234   0.238   0.187   0.231   0.205   0.261   0.280
   286.00    0.187   0.198   0.167   0.191   0.168   0.180   0.201   0.262   0.167   0.242   0.322   0.179   0.213   0.166   0.208   0.218   0.307   0.334   0.290   0.245   0.213   0.260   0.247   0.217   0.210   0.240   0.209   0.179   0.199   0.192   0.233   0.290   0.324   0.349   0.336   0.167   0.173   0.247   0.306   0.347   0.205   0.249   0.306   0.353   0.297   0.290   0.181   0.182   0.265   0.214   0.219   0.259   0.158   0.199   0.202   0.245   0.309   0.183   0.219
   281.00    0.224   0.252   0.208   0.216   0.266   0.269   0.257   0.179   0.246   0.269   0.303   0.256   0.223   0.260   0.320   0.294   0.305   0.264   0.264   0.165   0.266   0.272   0.340   0.334   0.324   0.169   0.156   0.269   0.176   0.180   0.211   0.265   0.218   0.260   0.298   0.227   0.279   0.222   0.228   0.229   0.272   0.298   0.298   0.321   0.258   0.204   0.167   0.202   0.233   0.224   0.291   0.296   0.280   0.286   0.235   0.225   0.291   0.206   0.256
   276.00    0.259   0.201   0.189   0.218   0.277   0.202   0.216   0.172   0.207   0.187   0.186   0.191   0.244   0.278   0.217   0.250   0.213   0.261   0.278   0.268   0.242   0.240   0.295   0.367   0.304   0.317   0.219   0.349   0.226   0.252   0.255   0.196   0.180   0.232   0.272   0.196   0.218   0.222   0.193   0.207   0.205   0.224   0.232   0.234   0.238   0.239   0.206   0.251   0.225   0.275   0.295   0.260   0.204   0.188   0.228   0.217   0.223   0.277   0.225
   271.00    0.263   0.268   0.289   0.189   0.255   0.193   0.216   0.223   0.202   0.200   0.228   0.291   0.242   0.282   0.199   0.196   0.217   0.241   0.201   0.203   0.289   0.205   0.268   0.317   0.255   0.294   0.345   0.347   0.352   0.182   0.267   0.149   0.216   0.270   0.220   0.319   0.180   0.259   0.196   0.243   0.186   0.293   0.280   0.258   0.192   0.232   0.275   0.193   0.226   0.229   0.232   0.305   0.230   0.193   0.225   0.173   0.221   0.290   0.170
   266.00    0.243   0.304   0.200   0.275   0.233   0.266   0.244   0.215   0.215   0.175   0.181   0.239   0.245   0.212   0.234   0.204   0.204   0.244   0.172   0.199   0.223   0.289   0.300   0.299   0.269   0.185   0.259   0.347   0.216   0.291   0.224   0.216   0.218   0.212   0.260   0.318   0.268   0.228   0.249   0.185   0.239   0.288   0.241   0.239   0.220   0.198   0.211   0.193   0.214   0.279   0.362   0.319   0.340   0.313   0.211   0.253   0.227   0.268   0.203
   261.00    0.263   0.202   0.225   0.286   0.238   0.236   0.208   0.238   0.163   0.215   0.286   0.228   0.209   0.223   0.190   0.195   0.219   0.257   0.222   0.228   0.179   0.210   0.272   0.220   0.268   0.154   0.217   0.272   0.277   0.309   0.190   0.212   0.263   0.217   0.210   0.242   0.205   0.178   0.211   0.209   0.196   0.227   0.291   0.200   0.204   0.232   0.180   0.221   0.261   0.273   0.291   0.285   0.254   0.217   0.183   0.222   0.222   0.198   0.212
   256.00    0.197   0.190   0.182   0.187   0.195   0.218   0.251   0.181   0.209   0.183   0.243   0.264   0.186   0.241   0.265   0.176   0.179   0.215   0.175   0.241   0.187   0.216   0.220   0.233   0.193   0.210   0.215   0.249   0.309   0.221   0.286   0.256   0.304   0.204   0.204   0.226   0.234   0.190   0.224   0.195   0.203   0.257   0.238   0.246   0.233   0.174   0.259   0.180   0.209   0.191   0.200   0.205   0.212   0.213   0.271   0.165   0.233   0.195   0.225
   251.00    0.233   0.259   0.291   0.323   0.195   0.244   0.248   0.174   0.249   0.214   0.262   0.182   0.228   0.225   0.158   0.259   0.316   0.262   0.248   0.198   0.206   0.226   0.212   0.188   0.207   0.170   0.259   0.194   0.208   0.238   0.268   0.268   0.243   0.184   0.210   0.200   0.199   0.224   0.202   0.237   0.259   0.249   0.235   0.233   0.192   0.241   0.268   0.197   0.195   0.196   0.239   0.225   0.286   0.237   0.199   0.262   0.251   0.273   0.160
   246.00    0.226   0.202   0.250   0.318   0.218   0.161   0.232   0.203   0.177   0.197   0.254   0.261   0.258   0.190   0.233   0.293   0.318   0.182   0.163   0.219   0.190   0.234   0.168   0.238   0.185   0.195   0.291   0.224   0.195   0.209   0.208   0.215   0.266   0.184   0.218   0.249   0.282   0.198   0.228   0.238   0.248   0.203   0.256   0.298   0.291   0.241   0.279   0.331   0.281   0.351   0.217   0.263   0.173   0.282   0.230   0.177   0.257   0.215   0.264
   241.00    0.229   0.221   0.180   0.220   0.249   0.230   0.309   0.301   0.292   0.160   0.247   0.212   0.232   0.184   0.185   0.256   0.205   0.214   0.206   0.245   0.215   0.222   0.192   0.200   0.222   0.202   0.250   0.190   0.193   0.222   0.204   0.250   0.284   0.249   0.174   0.197   0.298   0.193   0.171   0.189   0.254   0.261   0.174   0.302   0.228   0.182   0.247   0.272   0.338   0.253   0.318   0.228   0.251   0.268   0.174   0.276   0.214   0.215   0.252
   236.00    0.215   0.180   0.200   0.195   0.200   0.161   0.225   0.283   0.289   0.286   0.204   0.237   0.185   0.173   0.203   0.248   0.234   0.226   0.174   0.195   0.236   0.193   0.208   0.238   0.182   0.184   0.225   0.180   0.212   0.235   0.200   0.190   0.227   0.207   0.248   0.281   0.286   0.270   0.204   0.227   0.315   0.264   0.336   0.331   0.282   0.180   0.183   0.219   0.254   0.329   0.257   0.235   0.278   0.215   0.214   0.279   0.333   0.334   0.195
   231.00    0.247   0.240   0.217   0.220   0.274   0.315   0.248   0.259   0.218   0.263   0.295   0.191   0.248   0.202   0.235   0.292   0.196   0.194   0.203   0.193   0.183   0.238   0.220   0.179   0.267   0.213   0.216   0.252   0.253   0.225   0.228   0.213   0.196   0.197   0.244   0.221   0.188   0.226   0.270   0.193   0.238   0.242   0.239   0.281   0.309   0.207   0.194   0.222   0.182   0.275   0.280   0.351   0.337   0.333   0.352   0.229   0.248   0.295   0.317
   226.00    0.229   0.191   0.173   0.226   0.280   0.231   0.228   0.184   0.193   0.220   0.222   0.194   0.199   0.248   0.298   0.194   0.232   0.267   0.230   0.299   0.258   0.244   0.193   0.190   0.229   0.270   0.162   0.209   0.226   0.197   0.213   0.238   0.196   0.233   0.169   0.183   0.207   0.255   0.308   0.216   0.232   0.217   0.195   0.245   0.216   0.250   0.223   0.176   0.172   0.169   0.285   0.362   0.313   0.220   0.233   0.239   0.201   0.266   0.211
   221.00    0.165   0.246   0.224   0.204   0.200   0.279   0.166   0.186   0.222   0.211   0.186   0.167   0.204   0.233   0.207   0.251   0.248   0.334   0.210   0.162   0.257   0.220   0.241   0.227   0.229   0.217   0.237   0.284   0.192   0.272   0.362   0.251   0.226   0.247   0.215   0.276   0.236   0.166   0.230   0.300   0.205   0.262   0.170   0.208   0.182   0.234   0.243   0.241   0.227   0.266   0.291   0.280   0.291   0.304   0.352   0.272   0.212   0.278   0.230
   216.00    0.207   0.193   0.300   0.325   0.180   0.254   0.293   0.190   0.213   0.240   0.184   0.248   0.279   0.192   0.274   0.200   0.244   0.323   0.366   0.215   0.198   0.195   0.206   0.219   0.278   0.318   0.208   0.182   0.250   0.307   0.360   0.331   0.218   0.302   0.183   0.242   0.283   0.195   0.225   0.255   0.268   0.321   0.360   0.208   0.174   0.155   0.199   0.217   0.202   0.184   0.234   0.177   0.161   0.254   0.299   0.307   0.205   0.269   0.197
   211.00    0.265   0.292   0.274   0.241   0.315   0.212   0.247   0.190   0.244   0.193   0.155   0.231   0.304   0.326   0.270   0.220   0.254   0.235   0.338   0.354   0.289   0.195   0.230   0.266   0.307   0.336   0.316   0.200   0.210   0.224   0.253   0.287   0.288   0.289   0.216   0.179   0.240   0.213   0.217   0.220   0.238   0.306   0.340   0.316   0.226   0.266   0.246   0.215   0.177   0.177   0.227   0.232   0.251   0.302   0.324   0.290   0.210   0.269   0.307
   206.00    0.206   0.225   0.267   0.304   0.365   0.237   0.209   0.193   0.262   0.351   0.217   0.335   0.250   0.282   0.207   0.317   0.307   0.355   0.372   0.398   0.365   0.266   0.270   0.304   0.281   0.268   0.223   0.196   0.222   0.190   0.266   0.206   0.243   0.202   0.222   0.267   0.200   0.174   0.232   0.198   0.196   0.227   0.271   0.192   0.321   0.199   0.205   0.258   0.235   0.237   0.243   0.246   0.256   0.344   0.222   0.283   0.182   0.161   0.245
   201.00    0.191   0.210   0.177   0.282   0.339   0.194   0.198   0.226   0.268   0.305   0.339   0.346   0.274   0.286   0.346   0.209   0.329   0.404   0.333   0.364   0.376   0.174   0.190   0.180   0.213   0.167   0.227   0.176   0.207   0.269   0.198   0.229   0.225   0.242   0.244   0.238   0.219   0.178   0.229   0.170   0.220   0.201   0.251   0.305   0.283   0.291   0.191   0.215   0.212   0.251   0.217   0.199   0.222   0.300   0.325   0.288   0.206   0.281   0.269
   196.00    0.263   0.253   0.286   0.198   0.276   0.259   0.222   0.190   0.239   0.266   0.260   0.232   0.258   0.192   0.249   0.302   0.343   0.337   0.327   0.324   0.276   0.214   0.205   0.279   0.278   0.303   0.177   0.263   0.200   0.206   0.294   0.341   0.190   0.240   0.190   0.231   0.193   0.206   0.206   0.180   0.225   0.199   0.273   0.310   0.190   0.198   0.251   0.162   0.194   0.185   0.238   0.189   0.192   0.280   0.283   0.293   0.240   0.259   0.192
   191.00    0.233   0.249   0.263   0.233   0.219   0.196   0.164   0.215   0.230   0.240   0.193   0.179   0.234   0.312   0.239   0.331   0.225   0.226   0.239   0.213   0.262   0.248   0.279   0.203   0.220   0.216   0.235   0.238   0.276   0.203   0.240   0.296   0.236   0.243   0.217   0.214   0.272   0.198   0.176   0.197   0.233   0.265   0.233   0.283   0.196   0.254   0.193   0.188   0.198   0.237   0.224   0.263   0.290   0.270   0.266   0.267   0.211   0.181   0.202
   186.00    0.245   0.237   0.228   0.171   0.242   0.166   0.205   0.239   0.242   0.198   0.171   0.186   0.256   0.286   0.290   0.323   0.336   0.226   0.316   0.317   0.293   0.317   0.329   0.264   0.189   0.243   0.216   0.174   0.199   0.207   0.175   0.247   0.193   0.224   0.246   0.231   0.236   0.177   0.206   0.179   0.234   0.299   0.271   0.233   0.198   0.224   0.243   0.217   0.187   0.200   0.195   0.209   0.302   0.229   0.173   0.176   0.211   0.211   0.234
   181.00    0.247   0.197   0.200   0.206   0.180   0.220   0.211   0.190   0.245   0.210   0.177   0.287   0.310   0.340   0.252   0.249   0.258   0.238   0.259   0.294   0.159   0.253   0.293   0.250   0.210   0.256   0.168   0.208   0.197   0.185   0.203   0.251   0.167   0.224   0.206   0.193   0.184   0.209   0.188   0.217   0.203   0.202   0.235   0.187   0.189   0.195   0.169   0.192   0.178   0.224   0.276   0.208   0.230   0.277   0.167   0.223   0.292   0.177   0.211
   176.00    0.162   0.215   0.181   0.257   0.211   0.228   0.247   0.280   0.273   0.192   0.241   0.254   0.291   0.295   0.171   0.275   0.218   0.206   0.208   0.249   0.218   0.278   0.280   0.185   0.178   0.201   0.211   0.197   0.222   0.244   0.227   0.216   0.240   0.212   0.242   0.211   0.229   0.220   0.187   0.222   0.180   0.206   0.203   0.175   0.221   0.239   0.222   0.251   0.288   0.269   0.294   0.276   0.226   0.239   0.297   0.166   0.258   0.254   0.192
   171.00    0.294   0.209   0.257   0.336   0.228   0.342   0.250   0.264   0.237   0.204   0.178   0.253   0.192   0.207   0.259   0.310   0.195   0.217   0.280   0.197   0.230   0.288   0.205   0.207   0.216   0.270   0.196   0.179   0.208   0.221   0.189   0.225   0.214   0.256   0.298   0.188   0.245   0.258   0.189   0.237   0.196   0.216   0.192   0.228   0.266   0.191   0.202   0.265   0.183   0.246   0.233   0.207   0.260   0.218   0.186   0.218   0.282   0.260   0.191
   166.00    0.282   0.305   0.190   0.251   0.312   0.314   0.268   0.183   0.253   0.199   0.258   0.227   0.215   0.179   0.254   0.209   0.284   0.194   0.239   0.152   0.250   0.272   0.190   0.226   0.210   0.286   0.210   0.200   0.236   0.183   0.227   0.254   0.276   0.230   0.312   0.215   0.186   0.222   0.206   0.188   0.201   0.204   0.257   0.171   0.204   0.259   0.196   0.250   0.228   0.253   0.199   0.167   0.224   0.155   0.217   0.202   0.288   0.270   0.201
   161.00    0.191   0.250   0.285   0.207   0.234   0.225   0.223   0.232   0.201   0.296   0.260   0.267   0.254   0.274   0.236   0.224   0.211   0.270   0.207   0.176   0.266   0.256   0.302   0.201   0.186   0.215   0.209   0.200   0.174   0.216   0.208   0.203   0.251   0.346   0.362   0.261   0.256   0.222   0.177   0.169   0.277   0.261   0.189   0.253   0.183   0.239   0.223   0.201   0.234   0.282   0.214   0.205   0.190   0.281   0.257   0.199   0.244   0.197   0.209
   156.00    0.213   0.183   0.228   0.240   0.211   0.234   0.194   0.172   0.226   0.236   0.232   0.308   0.248   0.284   0.156   0.203   0.197   0.268   0.221   0.202   0.264   0.212   0.249   0.254   0.216   0.210   0.207   0.197   0.254   0.200   0.186   0.230   0.290   0.325   0.290   0.279   0.179   0.226   0.201   0.212   0.269   0.282   0.200   0.250   0.239   0.245   0.192   0.222   0.198   0.191   0.245   0.181   0.231   0.303   0.214   0.194   0.294   0.302   0.257
   151.00    0.185   0.204   0.203   0.171   0.225   0.276   0.197   0.213   0.261   0.192   0.183   0.267   0.291   0.289   0.214   0.264   0.262   0.198   0.283   0.268   0.193   0.214   0.224   0.261   0.265   0.244   0.237   0.174   0.205   0.215   0.299   0.228   0.252   0.270   0.208   0.253   0.265   0.222   0.243   0.164   0.216   0.223   0.209   0.240   0.203   0.258   0.165   0.222   0.257   0.201   0.194   0.165   0.275   0.244   0.335   0.275   0.235   0.257   0.225
   146.00    0.286   0.239   0.231   0.276   0.248   0.253   0.232   0.202   0.218   0.250   0.313   0.312   0.232   0.259   0.308   0.259   0.194   0.223   0.248   0.188   0.202   0.231   0.240   0.239   0.214   0.181   0.205   0.255   0.195   0.291   0.322   0.315   0.210   0.190   0.236   0.277   0.297   0.169   0.231   0.222   0.234   0.195   0.193   0.209   0.262   0.210   0.211   0.171   0.194   0.234   0.292   0.229   0.289   0.258   0.219   0.274   0.302   0.243   0.237
   141.00    0.230   0.201   0.212   0.196   0.184   0.184   0.242   0.156   0.173   0.268   0.271   0.311   0.297   0.297   0.300   0.201   0.188   0.212   0.233   0.168   0.215   0.195   0.252   0.262   0.265   0.234   0.239   0.172   0.176   0.242   0.248   0.276   0.181   0.206   0.211   0.202   0.196   0.222   0.170   0.272   0.195   0.189   0.218   0.280   0.217   0.177   0.189   0.255   0.275   0.319   0.252   0.182   0.255   0.253   0.254   0.202   0.237   0.193   0.207
   136.00    0.239   0.185   0.232   0.172   0.253   0.225   0.267   0.217   0.216   0.284   0.340   0.291   0.224   0.303   0.213   0.271   0.278   0.193   0.214   0.181   0.228   0.240   0.260   0.293   0.329   0.303   0.263   0.255   0.205   0.252   0.217   0.243   0.251   0.214   0.195   0.215   0.269   0.202   0.231   0.271   0.175   0.258   0.165   0.234   0.218   0.199   0.202   0.296   0.189   0.250   0.294   0.324   0.332   0.309   0.198   0.164   0.232   0.283   0.209
   131.00    0.207   0.243   0.216   0.206   0.255   0.224   0.264   0.244   0.165   0.225   0.285   0.235   0.173   0.246   0.301   0.250   0.214   0.200   0.276   0.221   0.261   0.255   0.269   0.246   0.325   0.233   0.202   0.275   0.219   0.170   0.228   0.192   0.193   0.208   0.219   0.210   0.294   0.221   0.202   0.188   0.195   0.245   0.260   0.195   0.283   0.228   0.250   0.292   0.248   0.275   0.281   0.262   0.217   0.225   0.203   0.209   0.227   0.224   0.194
   126.00    0.177   0.236   0.203   0.216   0.180   0.225   0.244   0.216   0.277   0.260   0.226   0.252   0.197   0.252   0.195   0.233   0.215   0.185   0.232   0.289   0.315   0.314   0.255   0.210   0.226   0.259   0.299   0.289   0.207   0.246   0.191   0.251   0.177   0.212   0.220   0.278   0.311   0.200   0.284   0.181   0.174   0.224   0.180   0.176   0.211   0.234   0.216   0.227   0.245   0.168   0.239   0.237   0.285   0.230   0.207   0.248   0.198   0.202   0.319
   121.00    0.256   0.256   0.193   0.187   0.212   0.219   0.276   0.149   0.216   0.239   0.234   0.294   0.263   0.185   0.243   0.197   0.250   0.207   0.190   0.227   0.259   0.255   0.183   0.227   0.230   0.200   0.205   0.218   0.220   0.276   0.311   0.293   0.180   0.266   0.247   0.186   0.300   0.183   0.282   0.303   0.221   0.186   0.190   0.212   0.275   0.160   0.220   0.241   0.210   0.232   0.286   0.211   0.336   0.201   0.168   0.219   0.246   0.305   0.362
   116.00    0.203   0.212   0.173   0.220   0.161   0.198   0.228   0.285   0.214   0.193   0.251   0.260   0.198   0.251   0.250   0.271   0.244   0.205   0.231   0.171   0.248   0.300   0.215   0.192   0.219   0.189   0.182   0.230   0.200   0.175   0.221   0.223   0.212   0.275   0.180   0.191   0.286   0.231   0.246   0.249   0.169   0.200   0.227   0.202   0.253   0.216   0.172   0.187   0.245   0.201   0.203   0.296   0.338   0.325   0.202   0.164   0.226   0.281   0.323
   111.00    0.222   0.204   0.220   0.198   0.180   0.180   0.248   0.310   0.178   0.255   0.241   0.176   0.258   0.173   0.230   0.231   0.207   0.205   0.189   0.186   0.206   0.246   0.222   0.156   0.271   0.208   0.263   0.241   0.279   0.194   0.204   0.226   0.237   0.211   0.260   0.285   0.254   0.277   0.207   0.247   0.164   0.208   0.180   0.234   0.261   0.225   0.260   0.271   0.328   0.345   0.352   0.255   0.291   0.300   0.182   0.175   0.207   0.265   0.280
   106.00    0.273   0.279   0.197   0.185   0.246   0.255   0.188   0.246   0.207   0.256   0.197   0.228   0.250   0.277   0.170   0.185   0.247   0.307   0.188   0.196   0.247   0.226   0.203   0.299   0.280   0.244   0.269   0.201   0.174   0.230   0.260   0.220   0.194   0.225   0.250   0.243   0.206   0.260   0.294   0.319   0.316   0.194   0.302   0.300   0.188   0.189   0.204   0.238   0.269   0.309   0.303   0.240   0.237   0.183   0.236   0.224   0.256   0.179   0.215
   101.00    0.233   0.218   0.201   0.247   0.244   0.323   0.174   0.212   0.280   0.227   0.236   0.210   0.198   0.213   0.201   0.244   0.162   0.245   0.234   0.197   0.215   0.164   0.228   0.243   0.337   0.218   0.296   0.215   0.250   0.183   0.240   0.231   0.201   0.236   0.230   0.310   0.220   0.247   0.203   0.209   0.226   0.284   0.331   0.194   0.197   0.225   0.343   0.249   0.221   0.278   0.251   0.269   0.217   0.277   0.206   0.298   0.277   0.188   0.167
    96.00    0.227   0.256   0.173   0.214   0.263   0.285   0.242   0.194   0.238   0.230   0.218   0.207   0.174   0.239   0.210   0.185   0.232   0.222   0.224   0.268   0.251   0.285   0.317   0.213   0.295   0.308   0.311   0.163   0.181   0.198   0.232   0.198   0.227   0.245   0.268   0.230   0.270   0.181   0.243   0.249   0.202   0.236   0.287   0.282   0.269   0.322   0.329   0.257   0.200   0.211   0.168   0.244   0.178   0.227   0.269   0.258   0.200   0.264   0.279
    91.00    0.203   0.222   0.214   0.247   0.240   0.233   0.186   0.258   0.217   0.246   0.229   0.191   0.205   0.216   0.187   0.201   0.218   0.215   0.200   0.247   0.258   0.276   0.265   0.199   0.170   0.190   0.227   0.210   0.208   0.181   0.184   0.221   0.240   0.270   0.218   0.215   0.221   0.244   0.216   0.212   0.191   0.255   0.299   0.329   0.354   0.334   0.312   0.201   0.266   0.262   0.169   0.264   0.299   0.192   0.170   0.188   0.193   0.219   0.203
    86.00    0.259   0.232   0.179   0.215   0.273   0.177   0.191   0.216   0.266   0.198   0.195   0.243   0.243   0.238   0.209   0.175   0.235   0.207   0.228   0.216   0.223   0.233   0.222   0.158   0.293   0.241   0.275   0.189   0.206   0.188   0.197   0.199   0.220   0.197   0.195   0.250   0.215   0.179   0.234   0.185   0.181   0.211   0.221   0.248   0.251   0.287   0.275   0.202   0.227   0.218   0.240   0.240   0.217   0.276   0.275   0.269   0.183   0.254   0.233
    81.00    0.237   0.194   0.227   0.264   0.157   0.202   0.286   0.218   0.169   0.187   0.252   0.297   0.184   0.217   0.203   0.237   0.262   0.210   0.187   0.189   0.209   0.223   0.170   0.294   0.337   0.193   0.256   0.303   0.219   0.246   0.248   0.187   0.229   0.204   0.188   0.215   0.245   0.161   0.258   0.270   0.232   0.235   0.168   0.212   0.188   0.209   0.196   0.175   0.312   0.224   0.247   0.182   0.249   0.210   0.277   0.191   0.241   0.237   0.215
    76.00    0.165   0.277   0.193   0.224   0.258   0.260   0.191   0.209   0.197   0.200   0.338   0.223   0.226   0.221   0.284   0.311   0.260   0.202   0.247   0.184   0.209   0.246   0.248   0.227   0.306   0.184   0.260   0.285   0.269   0.214   0.257   0.197   0.240   0.192   0.207   0.203   0.255   0.269   0.270   0.248   0.214   0.309   0.339   0.164   0.266   0.233   0.216   0.338   0.424   0.364   0.249   0.177   0.243   0.183   0.253   0.271   0.218   0.238   0.235
    71.00    0.294   0.307   0.192   0.205   0.190   0.272   0.271   0.194   0.235   0.303   0.282   0.293   0.245   0.304   0.322   0.280   0.240   0.290   0.318   0.252   0.203   0.268   0.221   0.206   0.275   0.260   0.258   0.284   0.178   0.209   0.209   0.182   0.241   0.215   0.209   0.251   0.194   0.219   0.199   0.202   0.247   0.289   0.269   0.199   0.235   0.247   0.227   0.346   0.357   0.386   0.238   0.209   0.211   0.208   0.256   0.187   0.209   0.182   0.212
    66.00    0.252   0.235   0.171   0.222   0.220   0.199   0.249   0.212   0.172   0.254   0.224   0.198   0.248   0.320   0.301   0.274   0.210   0.230   0.284   0.166   0.239   0.310   0.336   0.287   0.281   0.217   0.204   0.270   0.228   0.199   0.240   0.191   0.254   0.172   0.237   0.163   0.235   0.172   0.214   0.213   0.217   0.271   0.173   0.256   0.200   0.231   0.228   0.306   0.374   0.354   0.310   0.245   0.218   0.183   0.215   0.250   0.241   0.203   0.179
    61.00    0.227   0.230   0.196   0.234   0.275   0.216   0.215   0.213   0.300   0.290   0.169   0.209   0.229   0.263   0.220   0.222   0.210   0.233   0.239   0.268   0.169   0.224   0.280   0.299   0.174   0.215   0.189   0.201   0.184   0.176   0.213   0.167   0.193   0.173   0.230   0.235   0.210   0.242   0.198   0.208   0.196   0.196   0.225   0.202   0.235   0.169   0.193   0.206   0.239   0.238   0.265   0.276   0.243   0.242   0.286   0.226   0.212   0.306   0.212
    56.00    0.277   0.325   0.186   0.294   0.181   0.257   0.211   0.228   0.298   0.340   0.207   0.270   0.176   0.210   0.240   0.235   0.198   0.157   0.170   0.262   0.202   0.271   0.264   0.196   0.277   0.157   0.234   0.265   0.227   0.212   0.257   0.283   0.285   0.278   0.232   0.170   0.248   0.242   0.296   0.220   0.214   0.230   0.250   0.194   0.174   0.212   0.188   0.212   0.171   0.225   0.235   0.181   0.210   0.255   0.210   0.240   0.247   0.295   0.277
    51.00    0.233   0.305   0.323   0.271   0.219   0.210   0.173   0.200   0.204   0.296   0.208   0.246   0.202   0.229   0.203   0.197   0.269   0.251   0.270   0.243   0.251   0.276   0.230   0.181   0.208   0.231   0.181   0.246   0.242   0.191   0.220   0.247   0.204   0.205   0.196   0.194   0.220   0.245   0.264   0.182   0.211   0.213   0.234   0.172   0.187   0.237   0.240   0.168   0.157   0.173   0.163   0.175   0.216   0.186   0.239   0.277   0.225   0.243   0.278
    46.00    0.231   0.265   0.234   0.280   0.205   0.224   0.227   0.265   0.242   0.258   0.266   0.268   0.188   0.229   0.203   0.278   0.264   0.277   0.271   0.169   0.228   0.215   0.240   0.188   0.223   0.211   0.227   0.265   0.182   0.180   0.242   0.256   0.158   0.188   0.224   0.254   0.248   0.161   0.202   0.186   0.219   0.271   0.191   0.196   0.285   0.195   0.231   0.345   0.379   0.217   0.264   0.286   0.186   0.214   0.220   0.271   0.192   0.289   0.230
    41.00    0.162   0.192   0.276   0.234   0.201   0.215   0.220   0.224   0.220   0.185   0.229   0.209   0.233   0.209   0.235   0.267   0.192   0.228   0.226   0.181   0.244   0.190   0.221   0.181   0.219   0.193   0.210   0.209   0.220   0.238   0.237   0.276   0.193   0.262   0.174   0.188   0.217   0.204   0.214   0.244   0.197   0.210   0.232   0.206   0.237   0.218   0.270   0.364   0.331   0.332   0.224   0.180   0.215   0.180   0.184   0.201   0.219   0.271   0.260
    36.00    0.212   0.268   0.266   0.227   0.198   0.199   0.233   0.212   0.235   0.282   0.237   0.205   0.193   0.203   0.217   0.191   0.205   0.243   0.250   0.251   0.251   0.151   0.186   0.191   0.279   0.225   0.230   0.227   0.224   0.200   0.221   0.293   0.226   0.270   0.238   0.232   0.188   0.186   0.204   0.255   0.172   0.229   0.221   0.181   0.221   0.243   0.192   0.238   0.293   0.324   0.202   0.328   0.366   0.353   0.279   0.180   0.204   0.226   0.183
    31.00    0.174   0.195   0.264   0.172   0.218   0.219   0.259   0.231   0.198   0.281   0.215   0.200   0.205   0.260   0.259   0.291   0.315   0.258   0.199   0.245   0.298   0.238   0.186   0.301   0.294   0.282   0.241   0.192   0.189   0.196   0.216   0.206   0.258   0.236   0.170   0.238   0.165   0.197   0.187   0.274   0.286   0.249   0.236   0.234   0.212   0.180   0.189   0.198   0.221   0.262   0.184   0.306   0.356   0.280   0.199   0.252   0.197   0.188   0.265
    26.00    0.236   0.225   0.205   0.281   0.306   0.202   0.255   0.199   0.241   0.265   0.246   0.253   0.191   0.238   0.172   0.246   0.185   0.238   0.203   0.231   0.168   0.242   0.299   0.312   0.298   0.187   0.244   0.161   0.235   0.207   0.173   0.216   0.271   0.309   0.235   0.247   0.241   0.200   0.230   0.260   0.240   0.161   0.184   0.219   0.211   0.221   0.224   0.256   0.205   0.174   0.248   0.324   0.326   0.280   0.189   0.263   0.364   0.219   0.281
    21.00    0.210   0.191   0.187   0.232   0.273   0.189   0.237   0.290   0.347   0.210   0.185   0.273   0.302   0.233   0.198   0.303   0.245   0.178   0.267   0.191   0.179   0.207   0.252   0.263   0.284   0.182   0.176   0.195   0.286   0.246   0.292   0.303   0.253   0.231   0.269   0.201   0.226   0.244   0.169   0.190   0.226   0.243   0.251   0.166   0.288   0.266   0.244   0.202   0.226   0.218   0.224   0.301   0.235   0.279   0.182   0.269   0.312   0.281   0.257
    16.00    0.262   0.238   0.256   0.169   0.240   0.259   0.196   0.230   0.315   0.264   0.246   0.230   0.253   0.251   0.266   0.251   0.231   0.262   0.284   0.200   0.226   0.229   0.209   0.257   0.328   0.192   0.166   0.182   0.268   0.304   0.224   0.236   0.222   0.270   0.188   0.204   0.165   0.211   0.199   0.218   0.186   0.202   0.272   0.310   0.326   0.245   0.199   0.223   0.181   0.230   0.228   0.269   0.261   0.251   0.216   0.194   0.232   0.186   0.190
    11.00    0.240   0.270   0.210   0.227   0.218   0.187   0.255   0.231   0.297   0.311   0.259   0.319   0.221   0.300   0.162   0.192   0.226   0.229   0.187   0.201   0.224   0.207   0.273   0.341   0.327   0.242   0.200   0.297   0.288   0.212   0.301   0.212   0.192   0.225   0.276   0.177   0.216   0.221   0.187   0.258   0.284   0.245   0.305   0.202   0.310   0.240   0.218   0.258   0.327   0.380   0.322   0.239   0.234   0.187   0.178   0.186   0.182   0.199   0.200
     6.00    0.264   0.237   0.250   0.235   0.255   0.185   0.265   0.313   0.254   0.236   0.271   0.296   0.317   0.288   0.294   0.251   0.264   0.194   0.186   0.210   0.191   0.256   0.287   0.268   0.258   0.228   0.259   0.317   0.205   0.180   0.282   0.258   0.250   0.216   0.286   0.170   0.230   0.193   0.187   0.270   0.187   0.158   0.237   0.312   0.342   0.235   0.204   0.269   0.333   0.357   0.345   0.180   0.224   0.210   0.212   0.293   0.178   0.229   0.236
     1.00    0.242   0.223   0.192   0.259   0.292   0.312   0.213   0.283   0.215   0.260   0.223   0.243   0.242   0.279   0.302   0.334   0.163   0.238   0.199   0.184   0.194   0.238   0.249   0.178   0.245   0.275   0.216   0.233   0.280   0.217   0.271   0.286   0.209   0.232   0.238   0.298   0.189   0.245   0.176   0.201   0.250   0.304   0.235   0.216   0.282   0.316   0.206   0.205   0.275   0.257   0.288   0.184   0.255   0.170   0.238   0.283   0.207   0.203   0.253

   Height   Standard deviation at grid points for the v component:
   301.00    0.245   0.254   0.193   0.257   0.226   0.279   0.289   0.210   0.216   0.249   0.249   0.223   0.238   0.192   0.262   0.266   0.296   0.328   0.358   0.377   0.353   0.369   0.247   0.253   0.253   0.301   0.261   0.270   0.291   0.214   0.296   0.272   0.218   0.186   0.223   0.251   0.240   0.320   0.367   0.379   0.175   0.295   0.168   0.259   0.263   0.245   0.203   0.272   0.323   0.333   0.211   0.346   0.322   0.272   0.321   0.359   0.320   0.255   0.265
   296.00    0.236   0.222   0.232   0.208   0.189   0.234   0.244   0.207   0.233   0.182   0.210   0.242   0.225   0.266   0.240   0.211   0.236   0.256   0.345   0.324   0.321   0.287   0.262   0.232   0.264   0.281   0.310   0.249   0.290   0.248   0.326   0.251   0.246   0.275   0.304   0.307   0.230   0.235   0.271   0.324   0.258   0.286   0.350   0.236   0.230   0.209   0.270   0.337   0.299   0.299   0.276   0.357   0.345   0.203   0.220   0.318   0.238   0.312   0.352
   291.00    0.337   0.243   0.184   0.221   0.249   0.282   0.206   0.214   0.220   0.253   0.327   0.235   0.245   0.204   0.249   0.183   0.249   0.280   0.336   0.317   0.343   0.237   0.219   0.240   0.226   0.295   0.323   0.329   0.203   0.258   0.281   0.195   0.257   0.257   0.232   0.228   0.236   0.204   0.235   0.215   0.249   0.348   0.318   0.263   0.212   0.200   0.285   0.260   0.260   0.246   0.244   0.253   0.256   0.230   0.264   0.245   0.300   0.315   0.309
   286.00    0.327   0.340   0.326   0.221   0.233   0.235   0.190   0.254   0.188   0.265   0.308   0.211   0.227   0.215   0.206   0.263   0.311   0.265   0.293   0.341   0.383   0.356   0.303   0.358   0.361   0.208   0.307   0.346   0.200   0.266   0.260   0.176   0.274   0.292   0.259   0.209   0.249   0.203   0.249   0.240   0.269   0.248   0.319   0.167   0.185   0.246   0.234   0.246   0.230   0.212   0.259   0.206   0.221   0.248   0.286   0.339   0.304   0.271   0.228
   281.00    0.274   0.235   0.252   0.268   0.258   0.233   0.257   0.210   0.261   0.326   0.246   0.219   0.188   0.264   0.279   0.313   0.339   0.246   0.246   0.304   0.376   0.310   0.246   0.293   0.302   0.228   0.311   0.339   0.239   0.226   0.306   0.398   0.250   0.206   0.244   0.293   0.378   0.390   0.242   0.209   0.242   0.189   0.207   0.228   0.257   0.299   0.192   0.290   0.281   0.208   0.247   0.249   0.285   0.172   0.234   0.291   0.274   0.192   0.256
   276.00    0.292   0.251   0.221   0.233   0.239   0.269   0.311   0.177   0.231   0.250   0.215   0.247   0.257   0.257   0.238   0.263   0.244   0.294   0.339   0.213   0.346   0.279   0.278   0.244   0.235   0.237   0.316   0.252   0.182   0.210   0.310   0.372   0.294   0.276   0.271   0.237   0.301   0.362   0.211   0.188   0.234   0.207   0.265   0.335   0.344   0.333   0.242   0.255   0.203   0.295   0.290   0.216   0.277   0.224   0.174   0.285   0.357   0.325   0.227
   271.00    0.287   0.233   0.211   0.216   0.305   0.312   0.255   0.270   0.217   0.255   0.260   0.204   0.187   0.218   0.197   0.258   0.237   0.308   0.302   0.280   0.365   0.231   0.307   0.393   0.378   0.215   0.326   0.269   0.255   0.335   0.314   0.355   0.187   0.232   0.223   0.272   0.231   0.307   0.215   0.280   0.283   0.247   0.258   0.308   0.195   0.302   0.203   0.230   0.320   0.355   0.270   0.299   0.296   0.355   0.257   0.299   0.295   0.319   0.229
   266.00    0.292   0.343   0.225   0.185   0.282   0.247   0.256   0.318   0.225   0.289   0.194   0.215   0.299   0.276   0.226   0.271   0.265   0.233   0.306   0.190   0.337   0.263   0.242   0.292   0.330   0.241   0.305   0.216   0.294   0.349   0.225   0.315   0.243   0.311   0.354   0.231   0.265   0.291   0.187   0.294   0.216   0.214   0.195   0.267   0.225   0.337   0.328   0.281   0.325   0.321   0.338   0.254   0.195   0.247   0.278   0.324   0.213   0.263   0.241
   261.00    0.213   0.279   0.190   0.296   0.311   0.223   0.274   0.253   0.315   0.236   0.243   0.238   0.299   0.236   0.224   0.233   0.250   0.263   0.245   0.343   0.322   0.342   0.436   0.221   0.263   0.285   0.262   0.210   0.258   0.272   0.341   0.240   0.280   0.302   0.234   0.225   0.231   0.172   0.258   0.227   0.267   0.267   0.266   0.315   0.332   0.428   0.255   0.200   0.229   0.304   0.340   0.247   0.252   0.187   0.247   0.262   0.258   0.220   0.209
   256.00    0.249   0.255   0.276   0.296   0.288   0.230   0.284   0.287   0.291   0.235   0.238   0.251   0.240   0.205   0.276   0.211   0.259   0.284   0.234   0.325   0.306   0.230   0.344   0.417   0.291   0.225   0.286   0.223   0.190   0.304   0.322   0.311   0.214   0.258   0.257   0.250   0.281   0.281   0.246   0.266   0.282   0.281   0.236   0.237   0.352   0.381   0.370   0.184   0.253   0.228   0.272   0.214   0.223   0.260   0.194   0.192   0.202   0.244   0.297
   251.00    0.205   0.236   0.253   0.330   0.254   0.307   0.261   0.220   0.270   0.313   0.249   0.222   0.310   0.316   0.215   0.221   0.224   0.248   0.249   0.322   0.213   0.242   0.311   0.405   0.291   0.391   0.417   0.252   0.368   0.369   0.250   0.269   0.250   0.222   0.207   0.235   0.207   0.309   0.324   0.356   0.168   0.211   0.226   0.297   0.264   0.327   0.308   0.275   0.248   0.206   0.211   0.280   0.277   0.254   0.323   0.296   0.250   0.258   0.265
   246.00    0.254   0.250   0.213   0.225   0.298   0.339   0.235   0.249   0.254   0.296   0.281   0.274   0.275   0.270   0.263   0.201   0.212   0.256   0.222   0.246   0.327   0.360   0.290   0.333   0.316   0.387   0.411   0.403   0.347   0.322   0.308   0.274   0.303   0.248   0.233   0.236   0.235   0.364   0.274   0.235   0.274   0.174   0.268   0.357   0.311   0.338   0.200   0.247   0.219   0.257   0.221   0.241   0.257   0.263   0.240   0.233   0.193   0.249   0.192
   241.00    0.328   0.325   0.226   0.215   0.272   0.239   0.278   0.187   0.278   0.231   0.300   0.335   0.194   0.195   0.300   0.365   0.390   0.283   0.223   0.225   0.319   0.358   0.209   0.232   0.326   0.343   0.302   0.320   0.237   0.260   0.296   0.219   0.280   0.216   0.278   0.243   0.221   0.347   0.399   0.244   0.256   0.254   0.281   0.344   0.232   0.285   0.289   0.211   0.225   0.200   0.245   0.253   0.250   0.214   0.216   0.210   0.199   0.236   0.271
   236.00    0.315   0.236   0.302   0.291   0.264   0.245   0.189   0.272   0.243   0.247   0.255   0.281   0.265   0.289   0.270   0.304   0.280   0.322   0.242   0.203   0.276   0.324   0.241   0.209   0.273   0.330   0.177   0.242   0.233   0.241   0.237   0.262   0.231   0.199   0.201   0.283   0.268   0.362   0.358   0.264   0.271   0.206   0.228   0.298   0.171   0.243   0.216   0.241   0.274   0.229   0.276   0.309   0.331   0.224   0.266   0.275   0.214   0.216   0.267
   231.00    0.307   0.201   0.234   0.275   0.249   0.205   0.199   0.260   0.370   0.299   0.240   0.230   0.320   0.214   0.260   0.296   0.279   0.256   0.229   0.241   0.251   0.290   0.199   0.203   0.287   0.303   0.266   0.215   0.208   0.271   0.212   0.240   0.209   0.237   0.237   0.254   0.298   0.325   0.313   0.259   0.279   0.208   0.237   0.191   0.260   0.331   0.206   0.223   0.247   0.256   0.335   0.372   0.370   0.197   0.242   0.229   0.217   0.259   0.200
   226.00    0.292   0.220   0.239   0.329   0.336   0.318   0.235   0.251   0.308   0.353   0.255   0.214   0.279   0.314   0.198   0.193   0.234   0.273   0.190   0.258   0.221   0.256   0.249   0.240   0.231   0.224   0.227   0.299   0.212   0.197   0.255   0.257   0.261   0.247   0.214   0.190   0.250   0.226   0.273   0.231   0.335   0.331   0.209   0.257   0.345   0.281   0.186   0.270   0.223   0.285   0.353   0.310   0.298   0.312   0.209   0.274   0.200   0.207   0.223
   221.00    0.294   0.253   0.266   0.221   0.261   0.281   0.215   0.231   0.251   0.337   0.311   0.260   0.319   0.217   0.213   0.277   0.283   0.196   0.267   0.214   0.243   0.351   0.199   0.212   0.244   0.227   0.309   0.270   0.224   0.200   0.238   0.285   0.273   0.230   0.284   0.224   0.268   0.230   0.236   0.280   0.301   0.346   0.284   0.287   0.337   0.271   0.238   0.300   0.298   0.263   0.291   0.336   0.303   0.253   0.216   0.306   0.299   0.270   0.200
   216.00    0.350   0.223   0.303   0.336   0.333   0.286   0.210   0.209   0.207   0.249   0.340   0.338   0.373   0.203   0.276   0.343   0.240   0.242   0.229   0.201   0.279   0.299   0.301   0.293   0.236   0.206   0.244   0.341   0.222   0.241   0.228   0.181   0.255   0.295   0.311   0.240   0.275   0.175   0.228   0.199   0.269   0.312   0.281   0.232   0.223   0.241   0.272   0.296   0.252   0.243   0.288   0.315   0.313   0.183   0.253   0.303   0.264   0.317   0.193
   211.00    0.333   0.281   0.267   0.274   0.238   0.203   0.251   0.306   0.214   0.256   0.252   0.307   0.268   0.249   0.218   0.261   0.330   0.362   0.234   0.208   0.251   0.295   0.248   0.269   0.235   0.346   0.343   0.321   0.279   0.216   0.228   0.294   0.226   0.245   0.312   0.255   0.260   0.273   0.232   0.237   0.251   0.298   0.303   0.247   0.249   0.243   0.303   0.288   0.200   0.248   0.218   0.248   0.222   0.242   0.225   0.197   0.205   0.236   0.266
   206.00    0.312   0.223   0.252   0.208   0.194   0.279   0.329   0.251   0.230   0.189   0.218   0.304   0.225   0.203   0.277   0.245   0.212   0.316   0.332   0.290   0.272   0.254   0.253   0.256   0.210   0.305   0.198   0.311   0.246   0.211   0.207   0.263   0.230   0.231   0.315   0.370   0.179   0.213   0.248   0.306   0.349   0.319   0.271   0.295   0.273   0.330   0.321   0.197   0.223   0.212   0.299   0.212   0.221   0.220   0.188   0.240   0.284   0.282   0.191
   201.00    0.296   0.224   0.192   0.259   0.276   0.327   0.245   0.278   0.218   0.257   0.223   0.324   0.347   0.304   0.301   0.349   0.235   0.231   0.294   0.264   0.250   0.245   0.238   0.272   0.221   0.239   0.250   0.269   0.295   0.266   0.287   0.328   0.209   0.222   0.263   0.284   0.268   0.255   0.274   0.319   0.279   0.223   0.239   0.255   0.262   0.300   0.206   0.285   0.309   0.336   0.299   0.259   0.257   0.285   0.240   0.240   0.329   0.346   0.300
   196.00    0.254   0.283   0.259   0.242   0.316   0.224   0.298   0.224   0.297   0.325   0.327   0.313   0.278   0.241   0.189   0.273   0.273   0.239   0.284   0.223   0.266   0.195   0.287   0.192   0.344   0.363   0.346   0.195   0.226   0.216   0.290   0.211   0.217   0.233   0.233   0.195   0.226   0.273   0.274   0.230   0.232   0.205   0.261   0.191   0.293   0.204   0.271   0.215   0.218   0.277   0.320   0.408   0.413   0.278   0.250   0.236   0.241   0.311   0.255
   191.00    0.234   0.228   0.207   0.259   0.331   0.294   0.320   0.177   0.219   0.264   0.255   0.208   0.213   0.283   0.194   0.287   0.340   0.259   0.206   0.223   0.205   0.253   0.289   0.339   0.331   0.303   0.205   0.286   0.192   0.215   0.265   0.202   0.274   0.204   0.199   0.225   0.213   0.226   0.214   0.231   0.242   0.268   0.200   0.227   0.339   0.227   0.254   0.362   0.285   0.285   0.276   0.281   0.357   0.311   0.176   0.210   0.277   0.265   0.319
   186.00    0.316   0.320   0.193   0.291   0.314   0.221   0.216   0.222   0.200   0.230   0.240   0.317   0.212   0.271   0.245   0.254   0.250   0.314   0.320   0.200   0.252   0.195   0.211   0.241   0.246   0.277   0.206   0.296   0.257   0.273   0.232   0.241   0.213   0.248   0.277   0.199   0.252   0.222   0.225   0.230   0.240   0.249   0.205   0.276   0.285   0.353   0.412   0.391   0.448   0.417   0.304   0.333   0.280   0.294   0.255   0.211   0.232   0.292   0.324
   181.00    0.353   0.222   0.231   0.267   0.212   0.264   0.221   0.219   0.260   0.280   0.271   0.242   0.343   0.348   0.240   0.333   0.252   0.284   0.269   0.205   0.215   0.239   0.289   0.278   0.257   0.192   0.217   0.256   0.268   0.268   0.184   0.219   0.263   0.230   0.265   0.238   0.277   0.215   0.208   0.262   0.249   0.282   0.257   0.316   0.185   0.334   0.264   0.393   0.380   0.389   0.422   0.258   0.220   0.201   0.250   0.175   0.212   0.209   0.257
   176.00    0.305   0.249   0.242   0.202   0.251   0.229   0.272   0.299   0.253   0.214   0.209   0.275   0.304   0.263   0.308   0.269   0.213   0.209   0.246   0.348   0.354   0.247   0.239   0.247   0.241   0.265   0.278   0.233   0.224   0.247   0.261   0.224   0.336   0.271   0.312   0.219   0.233   0.219   0.256   0.253   0.287   0.216   0.277   0.188   0.239   0.309   0.341   0.331   0.304   0.375   0.440   0.250   0.197   0.282   0.241   0.265   0.206   0.245   0.282
   171.00    0.281   0.283   0.203   0.266   0.345   0.196   0.201   0.215   0.249   0.241   0.246   0.289   0.274   0.323   0.267   0.214   0.289   0.202   0.209   0.276   0.285   0.245   0.179   0.255   0.200   0.279   0.342   0.197   0.211   0.241   0.236   0.245   0.365   0.365   0.324   0.215   0.197   0.249   0.324   0.363   0.319   0.326   0.211   0.312   0.317   0.240   0.353   0.215   0.295   0.320   0.323   0.354   0.253   0.259   0.298   0.201   0.194   0.295   0.215
   166.00    0.297   0.218   0.259   0.241   0.297   0.357   0.228   0.294   0.253   0.356   0.428   0.261   0.290   0.316   0.258   0.250   0.226   0.220   0.191   0.274   0.235   0.259   0.316   0.266   0.287   0.318   0.259   0.211   0.314   0.306   0.224   0.281   0.319   0.276   0.284   0.216   0.241   0.218   0.209   0.256   0.268   0.245   0.269   0.313   0.218   0.335   0.437   0.454   0.241   0.230   0.259   0.299   0.200   0.193   0.247   0.276   0.264   0.293   0.280
   161.00    0.328   0.233   0.212   0.241   0.296   0.308   0.348   0.356   0.340   0.370   0.361   0.351   0.278   0.220   0.197   0.315   0.213   0.237   0.288   0.278   0.197   0.243   0.238   0.303   0.263   0.272   0.244   0.251   0.302   0.273   0.276   0.237   0.238   0.235   0.211   0.314   0.191   0.245   0.256   0.189   0.228   0.238   0.291   0.283   0.259   0.443   0.363   0.390   0.304   0.338   0.206   0.249   0.197   0.212   0.277   0.171   0.201   0.268   0.209
   156.00    0.311   0.214   0.258   0.249   0.249   0.220   0.331   0.381   0.266   0.263   0.320   0.239   0.266   0.229   0.200   0.317   0.337   0.243   0.281   0.298   0.185   0.221   0.190   0.265   0.245   0.223   0.257   0.257   0.236   0.197   0.219   0.185   0.274   0.325   0.359   0.277   0.229   0.237   0.296   0.185   0.246   0.218   0.253   0.392   0.481   0.513   0.390   0.377   0.263   0.266   0.336   0.244   0.209   0.332   0.321   0.266   0.272   0.214   0.322
   151.00    0.294   0.214   0.195   0.221   0.211   0.220   0.301   0.356   0.360   0.256   0.312   0.314   0.295   0.268   0.242   0.255   0.268   0.211   0.275   0.211   0.282   0.254   0.229   0.319   0.215   0.324   0.374   0.250   0.253   0.332   0.406   0.374   0.264   0.248   0.269   0.241   0.222   0.247   0.316   0.239   0.215   0.298   0.239   0.339   0.404   0.419   0.383   0.197   0.209   0.228   0.218   0.220   0.268   0.337   0.252   0.216   0.276   0.251   0.280
   146.00    0.243   0.229   0.274   0.228   0.315   0.305   0.324   0.367   0.289   0.231   0.294   0.287   0.237   0.248   0.272   0.222   0.269   0.233   0.222   0.268   0.235   0.275   0.284   0.246   0.284   0.258   0.308   0.239   0.288   0.349   0.378   0.376   0.257   0.185   0.238   0.210   0.250   0.250   0.294   0.394   0.231   0.321   0.301   0.308   0.283   0.320   0.318   0.255   0.257   0.211   0.230   0.234   0.274   0.306   0.371   0.376   0.384   0.313   0.279
   141.00    0.306   0.236   0.326   0.236   0.264   0.290   0.331   0.330   0.327   0.207   0.310   0.236   0.195   0.198   0.301   0.233   0.259   0.208   0.241   0.318   0.255   0.271   0.236   0.222   0.294   0.208   0.287   0.253   0.271   0.282   0.278   0.285   0.251   0.251   0.272   0.226   0.219   0.218   0.278   0.305   0.336   0.223   0.259   0.276   0.208   0.204   0.221   0.230   0.235   0.240   0.290   0.228   0.269   0.205   0.280   0.242   0.324   0.356   0.214
   136.00    0.201   0.249   0.282   0.278   0.290   0.234   0.216   0.246   0.346   0.395   0.314   0.265   0.220   0.219   0.275   0.292   0.280   0.228   0.196   0.270   0.358   0.286   0.257   0.237   0.287   0.228   0.212   0.236   0.273   0.281   0.355   0.201   0.233   0.234   0.259   0.212   0.235   0.208   0.227   0.263   0.265   0.248   0.226   0.239   0.222   0.300   0.234   0.224   0.261   0.279   0.257   0.214   0.246   0.223   0.242   0.266   0.317   0.340   0.277
   131.00    0.283   0.186   0.184   0.236   0.215   0.250   0.207   0.277   0.288   0.332   0.256   0.333   0.328   0.240   0.256   0.243   0.251   0.237   0.220   0.298   0.385   0.192   0.193   0.212   0.229   0.204   0.230   0.229   0.221   0.275   0.263   0.308   0.188   0.311   0.257   0.208   0.341   0.218   0.320   0.295   0.209   0.286   0.242   0.323   0.317   0.275   0.273   0.305   0.272   0.263   0.224   0.278   0.248   0.269   0.221   0.281   0.276   0.298   0.368
   126.00    0.292   0.229   0.242   0.274   0.236   0.354   0.233   0.232   0.206   0.229   0.211   0.269   0.269   0.251   0.202   0.231   0.225   0.288   0.266   0.205   0.317   0.356   0.228   0.227   0.209   0.227   0.291   0.377   0.356   0.311   0.216   0.217   0.247   0.266   0.319   0.339   0.367   0.316   0.350   0.317   0.187   0.209   0.215   0.220   0.256   0.188   0.248   0.212   0.257   0.272   0.226   0.189   0.241   0.223   0.218   0.258   0.307   0.304   0.362
   121.00    0.258   0.256   0.271   0.312   0.351   0.402   0.261   0.268   0.211   0.207   0.249   0.258   0.216   0.216   0.250   0.245   0.213   0.281   0.258   0.278   0.296   0.276   0.307   0.246   0.216   0.288   0.237   0.263   0.264   0.226   0.292   0.362   0.193   0.232   0.262   0.308   0.299   0.236   0.360   0.257   0.198   0.222   0.203   0.287   0.267   0.259   0.341   0.158   0.288   0.296   0.192   0.297   0.298   0.260   0.223   0.298   0.225   0.268   0.276
   116.00    0.281   0.215   0.285   0.358   0.335   0.351   0.335   0.264   0.231   0.213   0.268   0.249   0.188   0.287   0.310   0.308   0.323   0.308   0.262   0.348   0.225   0.231   0.255   0.235   0.297   0.244   0.267   0.203   0.277   0.185   0.263   0.317   0.284   0.315   0.199   0.215   0.280   0.375   0.372   0.327   0.243   0.220   0.237   0.278   0.239   0.177   0.293   0.215   0.261   0.227   0.256   0.300   0.295   0.247   0.299   0.340   0.196   0.242   0.248
   111.00    0.246   0.275   0.196   0.316   0.237   0.240   0.278   0.290   0.323   0.212   0.211   0.191   0.251   0.250   0.207   0.245   0.236   0.192   0.240   0.262   0.241   0.243   0.261   0.228   0.244   0.189   0.264   0.281   0.197   0.279   0.237   0.303   0.373   0.378   0.309   0.185   0.236   0.317   0.360   0.357   0.186   0.284   0.201   0.250   0.276   0.234   0.281   0.323   0.220   0.212   0.237   0.289   0.305   0.174   0.258   0.254   0.306   0.238   0.239
   106.00    0.236   0.206   0.279   0.309   0.228   0.258   0.251   0.226   0.282   0.238   0.240   0.197   0.214   0.233   0.278   0.307   0.303   0.267   0.278   0.208   0.235   0.231   0.211   0.217   0.238   0.235   0.187   0.192   0.250   0.250   0.281   0.400   0.386   0.345   0.324   0.271   0.303   0.309   0.321   0.262   0.256   0.305   0.299   0.280   0.187   0.238   0.263   0.217   0.259   0.279   0.212   0.290   0.206   0.263   0.248   0.203   0.210   0.266   0.198
   101.00    0.234   0.215   0.226   0.253   0.197   0.258   0.232   0.269   0.255   0.180   0.243   0.272   0.224   0.253   0.253   0.199   0.238   0.330   0.276   0.337   0.190   0.252   0.293   0.243   0.237   0.211   0.234   0.261   0.242   0.237   0.300   0.354   0.376   0.228   0.295   0.197   0.204   0.219   0.243   0.267   0.327   0.308   0.361   0.422   0.222   0.224   0.237   0.310   0.357   0.344   0.239   0.294   0.329   0.262   0.187   0.226   0.261   0.259   0.318
    96.00    0.205   0.182   0.315   0.249   0.335   0.234   0.230   0.248   0.172   0.322   0.229   0.235   0.236   0.259   0.214   0.261   0.300   0.361   0.282   0.297   0.374   0.180   0.238   0.229   0.207   0.282   0.210   0.263   0.237   0.256   0.233   0.334   0.261   0.216   0.256   0.231   0.236   0.199   0.250   0.254   0.343   0.350   0.295   0.360   0.356   0.257   0.261   0.240   0.366   0.300   0.211   0.216   0.287   0.300   0.185   0.233   0.248   0.287   0.310
    91.00    0.314   0.233   0.341   0.406   0.393   0.254   0.199   0.212   0.297   0.345   0.253   0.304   0.235   0.286   0.224   0.205   0.246   0.265   0.247   0.313   0.337   0.221   0.264   0.292   0.260   0.272   0.233   0.210   0.238   0.195   0.296   0.342   0.212   0.246   0.218   0.240   0.265   0.279   0.228   0.230   0.287   0.218   0.326   0.365   0.383   0.215   0.230   0.282   0.395   0.431   0.273   0.317   0.177   0.300   0.299   0.306   0.176   0.331   0.191
    86.00    0.275   0.236   0.276   0.316   0.304   0.322   0.255   0.179   0.224   0.287   0.331   0.267   0.201   0.245   0.233   0.233   0.197   0.235   0.255   0.296   0.279   0.246   0.256   0.260   0.189   0.275   0.210   0.225   0.206   0.225   0.218   0.270   0.250   0.261   0.247   0.217   0.209   0.248   0.254   0.183   0.217   0.306   0.288   0.310   0.350   0.269   0.301   0.246   0.386   0.412   0.388   0.277   0.296   0.311   0.218   0.259   0.247   0.298   0.343
    81.00    0.238   0.214   0.224   0.286   0.241   0.299   0.257   0.310   0.349   0.217   0.243   0.269   0.189   0.265   0.239   0.268   0.286   0.178   0.291   0.302   0.287   0.335   0.213   0.221   0.216   0.257   0.213   0.253   0.224   0.197   0.233   0.248   0.251   0.229   0.248   0.354   0.278   0.207   0.266   0.313   0.344   0.361   0.378   0.179   0.276   0.342   0.232   0.337   0.387   0.299   0.366   0.438   0.216   0.314   0.308   0.272   0.224   0.206   0.288
    76.00    0.221   0.220   0.218   0.237   0.250   0.217   0.289   0.374   0.264   0.285   0.328   0.382   0.227   0.282   0.307   0.174   0.252   0.230   0.260   0.225   0.290   0.267   0.357   0.211   0.163   0.220   0.243   0.203   0.214   0.298   0.295   0.296   0.310   0.187   0.294   0.271   0.268   0.250   0.262   0.342   0.292   0.301   0.314   0.246   0.274   0.266   0.290   0.320   0.325   0.302   0.359   0.399   0.372   0.210   0.258   0.395   0.427   0.245   0.326
    71.00    0.329   0.273   0.198   0.231   0.203   0.233   0.275   0.354   0.247   0.300   0.200   0.303   0.333   0.230   0.271   0.230   0.268   0.337   0.331   0.242   0.296   0.388   0.279   0.219   0.319   0.343   0.346   0.200   0.279   0.286   0.289   0.376   0.304   0.266   0.251   0.256   0.279   0.224   0.237   0.267   0.226   0.206   0.226   0.258   0.289   0.265   0.217   0.251   0.305   0.369   0.403   0.393   0.214   0.312   0.332   0.322   0.342   0.341   0.338
    66.00    0.377   0.322   0.299   0.237   0.337   0.210   0.291   0.304   0.278   0.294   0.206   0.322   0.261   0.258   0.311   0.290   0.221   0.311   0.240   0.238   0.284   0.404   0.343   0.328   0.265   0.215   0.254   0.266   0.316   0.220   0.248   0.296   0.254   0.255   0.212   0.207   0.217   0.222   0.248   0.251   0.252   0.285   0.273   0.326   0.253   0.176   0.248   0.276   0.208   0.247   0.281   0.331   0.264   0.263   0.207   0.247   0.303   0.360   0.261
    61.00    0.335   0.358   0.379   0.267   0.378   0.327   0.322   0.250   0.223   0.292   0.298   0.336   0.336   0.346   0.330   0.297   0.221   0.294   0.265   0.295   0.261   0.327   0.339   0.291   0.221   0.338   0.248   0.214   0.274   0.356   0.200   0.249   0.194   0.206   0.245   0.290   0.198   0.325   0.299   0.215   0.210   0.216   0.244   0.244   0.277   0.276   0.254   0.261   0.202   0.235   0.222   0.260   0.175   0.301   0.293   0.308   0.299   0.343   0.344
    56.00    0.254   0.326   0.341   0.285   0.325   0.317   0.298   0.278   0.221   0.263   0.267   0.269   0.262   0.313   0.280   0.233   0.234   0.252   0.298   0.349   0.270   0.243   0.253   0.344   0.246   0.279   0.264   0.246   0.254   0.289   0.308   0.231   0.240   0.286   0.267   0.269   0.317   0.306   0.304   0.347   0.299   0.234   0.188   0.282   0.300   0.179   0.223   0.261   0.250   0.202   0.192   0.262   0.282   0.335   0.229   0.264   0.234   0.321   0.293
    51.00    0.220   0.314   0.393   0.242   0.263   0.283   0.298   0.234   0.292   0.229   0.285   0.365   0.200   0.260   0.255   0.220   0.249   0.258   0.264   0.353   0.392   0.212   0.197   0.280   0.278   0.219   0.195   0.219   0.280   0.298   0.289   0.200   0.221   0.240   0.235   0.235   0.258   0.302   0.195   0.256   0.292   0.235   0.210   0.190   0.339   0.218   0.263   0.226   0.207   0.219   0.305   0.338   0.196   0.287   0.350   0.364   0.361   0.384   0.233
    46.00    0.210   0.261   0.287   0.331   0.315   0.303   0.263   0.282   0.264   0.234   0.265   0.341   0.334   0.204   0.218   0.224   0.219   0.207   0.237   0.286   0.292   0.295   0.277   0.223   0.254   0.221   0.288   0.212   0.286   0.257   0.335   0.227   0.306   0.207   0.221   0.226   0.245   0.278   0.198   0.229   0.273   0.225   0.260   0.307   0.329   0.321   0.268   0.225   0.261   0.251   0.230   0.333   0.253   0.236   0.277   0.279   0.334   0.271   0.316
    41.00    0.292   0.204   0.206   0.276   0.202   0.247   0.260   0.201   0.190   0.313   0.241   0.257   0.257   0.294   0.238   0.171   0.246   0.186   0.261   0.282   0.207   0.190   0.302   0.247   0.262   0.311   0.289   0.279   0.300   0.315   0.366   0.318   0.304   0.261   0.271   0.263   0.240   0.214   0.221   0.231   0.239   0.191   0.206   0.254   0.276   0.303   0.288   0.203   0.242   0.193   0.227   0.296   0.348   0.300   0.292   0.264   0.286   0.296   0.209
    36.00    0.380   0.274   0.199   0.210   0.260   0.213   0.227   0.282   0.326   0.432   0.266   0.231   0.240   0.311   0.286   0.243   0.278   0.269   0.199   0.216   0.225   0.285   0.358   0.226   0.253   0.260   0.186   0.302   0.250   0.342   0.242   0.255   0.302   0.184   0.220   0.251   0.253   0.239   0.223   0.261   0.211   0.280   0.293   0.281   0.250   0.229   0.258   0.202   0.223   0.231   0.186   0.277   0.339   0.274   0.195   0.263   0.240   0.216   0.221
    31.00    0.357   0.416   0.374   0.337   0.209   0.237   0.223   0.176   0.325   0.394   0.437   0.408   0.315   0.288   0.318   0.294   0.321   0.289   0.255   0.267   0.242   0.222   0.320   0.287   0.238   0.216   0.220   0.220   0.330   0.374   0.245   0.264   0.302   0.219   0.201   0.245   0.206   0.239   0.210   0.271   0.217   0.253   0.207   0.230   0.225   0.304   0.239   0.281   0.209   0.204   0.251   0.260   0.270   0.272   0.260   0.192   0.213   0.242   0.204
    26.00    0.353   0.374   0.318   0.206   0.234   0.238   0.254   0.349   0.313   0.339   0.353   0.327   0.349   0.197   0.285   0.271   0.256   0.216   0.309   0.351   0.212   0.253   0.219   0.250   0.244   0.218   0.174   0.242   0.350   0.259   0.380   0.411   0.295   0.322   0.308   0.288   0.221   0.222   0.219   0.269   0.247   0.212   0.260   0.260   0.266   0.214   0.242   0.236   0.237   0.286   0.299   0.265   0.235   0.287   0.233   0.322   0.219   0.219   0.269
    21.00    0.331   0.325   0.270   0.302   0.178   0.232   0.318   0.371   0.360   0.392   0.250   0.353   0.396   0.257   0.313   0.229   0.224   0.311   0.383   0.362   0.199   0.250   0.241   0.209   0.245   0.236   0.247   0.252   0.386   0.453   0.453   0.343   0.329   0.203   0.304   0.382   0.298   0.190   0.220   0.282   0.222   0.283   0.280   0.197   0.252   0.200   0.259   0.239   0.255   0.224   0.254   0.192   0.234   0.221   0.284   0.240   0.264   0.375   0.253
    16.00    0.290   0.272   0.227   0.286   0.204   0.255   0.315   0.323   0.212   0.337   0.257   0.303   0.381   0.405   0.395   0.244   0.259   0.318   0.301   0.299   0.211   0.258   0.194   0.261   0.363   0.230   0.312   0.222   0.375   0.434   0.343   0.286   0.176   0.292   0.226   0.309   0.276   0.253   0.219   0.248   0.271   0.258   0.222   0.233   0.265   0.245   0.199   0.245   0.244   0.265   0.277   0.310   0.187   0.221   0.260   0.263   0.302   0.341   0.318
    11.00    0.261   0.245   0.221   0.248   0.176   0.184   0.239   0.263   0.289   0.268   0.348   0.355   0.364   0.269   0.332   0.205   0.202   0.256   0.214   0.251   0.184   0.209   0.212   0.232   0.297   0.337   0.241   0.271   0.319   0.314   0.357   0.281   0.195   0.321   0.228   0.354   0.219   0.277   0.218   0.211   0.260   0.187   0.292   0.310   0.226   0.241   0.303   0.231   0.294   0.211   0.233   0.303   0.270   0.190   0.249   0.255   0.302   0.234   0.306
     6.00    0.194   0.295   0.218   0.250   0.277   0.258   0.323   0.354   0.202   0.299   0.229   0.303   0.202   0.308   0.347   0.202   0.217   0.194   0.192   0.223   0.257   0.178   0.216   0.236   0.263   0.254   0.248   0.219   0.230   0.316   0.227   0.273   0.207   0.305   0.289   0.325   0.319   0.302   0.179   0.217   0.264   0.264   0.342   0.339   0.255   0.203   0.254   0.287   0.318   0.235   0.298   0.299   0.263   0.241   0.276   0.281   0.294   0.250   0.246
     1.00    0.270   0.268   0.266   0.308   0.228   0.241   0.235   0.300   0.318   0.216   0.300   0.314   0.305   0.240   0.269   0.280   0.281   0.320   0.243   0.292   0.232   0.277   0.225   0.221   0.293   0.239   0.278   0.252   0.202   0.257   0.307   0.193   0.279   0.326   0.180   0.235   0.256   0.263   0.237   0.259   0.234   0.280   0.248   0.311   0.278   0.200   0.238   0.282   0.223   0.255   0.321   0.250   0.281   0.266   0.273   0.300   0.282   0.187   0.264

   Height   Standard deviation at grid points for the w component:
   301.00    0.217   0.225   0.211   0.219   0.192   0.202   0.195   0.209   0.239   0.225   0.169   0.201   0.223   0.178   0.204   0.208   0.210   0.185   0.208   0.157   0.217   0.207   0.215   0.225   0.190   0.224   0.213   0.220   0.208   0.195   0.199   0.201   0.220   0.215   0.244   0.222   0.242   0.305   0.295   0.202   0.222   0.209   0.217   0.175   0.219   0.205   0.208   0.192   0.213   0.177   0.204   0.219   0.205   0.212   0.245   0.289   0.275   0.189   0.197
   296.00    0.180   0.200   0.199   0.172   0.202   0.181   0.206   0.207   0.228   0.160   0.212   0.223   0.195   0.207   0.216   0.204   0.192   0.212   0.250   0.217   0.221   0.226   0.204   0.191   0.203   0.207   0.262   0.246   0.179   0.187   0.207   0.173   0.208   0.191   0.220   0.206   0.236   0.283   0.282   0.206   0.251   0.180   0.187   0.175   0.198   0.177   0.220   0.173   0.179   0.219   0.231   0.217   0.222   0.179   0.197   0.268   0.180   0.218   0.240
   291.00    0.189   0.224   0.190   0.225   0.199   0.176   0.187   0.205   0.210   0.180   0.200   0.184   0.167   0.191   0.215   0.197   0.173   0.208   0.205   0.180   0.183   0.184   0.167   0.227   0.158   0.180   0.217   0.228   0.184   0.178   0.191   0.217   0.181   0.173   0.171   0.178   0.220   0.252   0.272   0.252   0.270   0.239   0.183   0.195   0.216   0.210   0.223   0.191   0.214   0.176   0.203   0.227   0.274   0.249   0.199   0.240   0.220   0.198   0.212
   286.00    0.187   0.217   0.189   0.222   0.175   0.194   0.178   0.195   0.214   0.202   0.225   0.187   0.187   0.181   0.215   0.278   0.199   0.174   0.214   0.202   0.193   0.242   0.275   0.256   0.202   0.200   0.245   0.230   0.191   0.179   0.189   0.222   0.224   0.185   0.232   0.224   0.220   0.231   0.241   0.191   0.196   0.201   0.187   0.187   0.222   0.196   0.234   0.204   0.183   0.163   0.212   0.219   0.209   0.273   0.196   0.247   0.249   0.244   0.180
   281.00    0.192   0.238   0.231   0.202   0.230   0.183   0.179   0.197   0.173   0.179   0.209   0.154   0.203   0.186   0.195   0.249   0.240   0.224   0.250   0.206   0.205   0.191   0.229   0.219   0.196   0.190   0.234   0.230   0.159   0.224   0.204   0.223   0.230   0.220   0.208   0.261   0.199   0.265   0.216   0.179   0.183   0.197   0.184   0.194   0.240   0.194   0.215   0.240   0.202   0.262   0.202   0.178   0.165   0.226   0.265   0.265   0.170   0.221   0.260
   276.00    0.215   0.215   0.216   0.187   0.194   0.194   0.181   0.189   0.213   0.201   0.234   0.268   0.192   0.204   0.188   0.226   0.176   0.220   0.235   0.214   0.177   0.202   0.191   0.198   0.178   0.206   0.187   0.207   0.174   0.235   0.179   0.185   0.172   0.194   0.232   0.228   0.206   0.215   0.244   0.247   0.178   0.198   0.190   0.218   0.227   0.283   0.203   0.232   0.224   0.222   0.225   0.188   0.200   0.216   0.253   0.198   0.206   0.191   0.263
   271.00    0.220   0.166   0.189   0.189   0.159   0.208   0.211   0.190   0.228   0.184   0.192   0.246   0.239   0.191   0.181   0.215   0.216   0.236   0.194   0.220   0.222   0.241   0.221   0.190   0.188   0.213   0.193   0.196   0.209   0.220   0.231   0.244   0.184   0.193   0.194   0.239   0.174   0.185   0.215   0.202   0.222   0.165   0.193   0.210   0.197   0.222   0.259   0.289   0.265   0.222   0.189   0.176   0.183   0.199   0.226   0.189   0.177   0.194   0.228
   266.00    0.185   0.223   0.207   0.217   0.191   0.215   0.223   0.236   0.225   0.177   0.220   0.223   0.197   0.204   0.186   0.206   0.212   0.176   0.162   0.203   0.196   0.226   0.238   0.237   0.177   0.169   0.190   0.163   0.207   0.191   0.207   0.202   0.192   0.178   0.218   0.248   0.189   0.188   0.180   0.186   0.196   0.188   0.226   0.208   0.244   0.227   0.215   0.227   0.233   0.182   0.196   0.190   0.193   0.219   0.202   0.242   0.201   0.161   0.187
   261.00    0.193   0.190   0.218   0.229   0.220   0.209   0.227   0.192   0.213   0.172   0.178   0.173   0.221   0.244   0.180   0.232   0.225   0.207   0.231   0.217   0.171   0.212   0.225   0.228   0.174   0.209   0.228   0.181   0.185   0.197   0.208   0.196   0.207   0.199   0.192   0.187   0.195   0.200   0.191   0.194   0.183   0.188   0.218   0.234   0.250   0.286   0.233   0.223   0.230   0.202   0.197   0.194   0.192   0.214   0.233   0.258   0.165   0.230   0.203
   256.00    0.209   0.183   0.197   0.178   0.189   0.212   0.186   0.200   0.194   0.194   0.227   0.236   0.241   0.286   0.169   0.198   0.186   0.210   0.189   0.194   0.215   0.248   0.197   0.154   0.239   0.177   0.239   0.247   0.159   0.194   0.259   0.205   0.204   0.204   0.188   0.216   0.223   0.219   0.215   0.216   0.203   0.169   0.225   0.181   0.194   0.232   0.167   0.198   0.205   0.172   0.209   0.203   0.194   0.204   0.248   0.223   0.205   0.247   0.238
   251.00    0.164   0.222   0.235   0.184   0.177   0.188   0.207   0.204   0.253   0.248   0.254   0.181   0.210   0.231   0.250   0.171   0.203   0.217   0.209   0.237   0.203   0.243   0.194   0.235   0.247   0.255   0.222   0.206   0.193   0.192   0.208   0.196   0.194   0.166   0.201   0.204   0.220   0.194   0.172   0.204   0.211   0.186   0.230   0.231   0.177   0.193   0.230   0.178   0.181   0.175   0.224   0.212   0.189   0.230   0.295   0.266   0.282   0.264   0.191
   246.00    0.227   0.205   0.218   0.198   0.240   0.199   0.204   0.195   0.222   0.238   0.229   0.177   0.187   0.194   0.188   0.202   0.216   0.237   0.177   0.252   0.270   0.212   0.264   0.245   0.187   0.237   0.279   0.170   0.165   0.183   0.173   0.201   0.213   0.255   0.252   0.249   0.231   0.219   0.194   0.218   0.214   0.189   0.195   0.193   0.253   0.190   0.214   0.248   0.163   0.241   0.199   0.218   0.195   0.203   0.249   0.295   0.312   0.174   0.220
   241.00    0.217   0.217   0.214   0.178   0.214   0.243   0.172   0.208   0.175   0.224   0.175   0.229   0.167   0.200   0.175   0.196   0.194   0.212   0.210   0.249   0.265   0.234   0.189   0.231   0.225   0.236   0.239   0.246   0.196   0.207   0.179   0.176   0.201   0.212   0.238   0.218   0.223   0.205   0.183   0.185   0.220   0.236   0.191   0.224   0.195   0.206   0.188   0.235   0.176   0.241   0.232   0.173   0.168   0.226   0.210   0.238   0.248   0.232   0.173
   236.00    0.190   0.245   0.220   0.229   0.163   0.197   0.206   0.243   0.179   0.178   0.214   0.263   0.229   0.171   0.205   0.203   0.210   0.181   0.227   0.234   0.259   0.240   0.191   0.195   0.243   0.221   0.193   0.197   0.238   0.267   0.174   0.198   0.190   0.185   0.212   0.207   0.204   0.210   0.215   0.192   0.168   0.165   0.178   0.213   0.221   0.242   0.177   0.221   0.241   0.238   0.264   0.253   0.201   0.213   0.205   0.211   0.181   0.186   0.244
   231.00    0.199   0.234   0.209   0.199   0.179   0.192   0.171   0.213   0.207   0.170   0.219   0.242   0.238   0.237   0.175   0.179   0.214   0.216   0.193   0.216   0.211   0.216   0.220   0.179   0.181   0.201   0.195   0.207   0.214   0.222   0.205   0.212   0.215   0.181   0.187   0.248   0.214   0.206   0.196   0.218   0.226   0.219   0.186   0.188   0.229   0.179   0.248   0.272   0.189   0.193   0.217   0.206   0.180   0.192   0.183   0.250   0.231   0.259   0.277
   226.00    0.209   0.233   0.186   0.233   0.191   0.161   0.198   0.208   0.168   0.189   0.219   0.193   0.201   0.212   0.205   0.227   0.183   0.202   0.210   0.228   0.192   0.193   0.202   0.218   0.226   0.266   0.209   0.200   0.177   0.169   0.230   0.242   0.198   0.175   0.204   0.255   0.212   0.238   0.168   0.190   0.230   0.220   0.189   0.220   0.241   0.227   0.242   0.209   0.244   0.198   0.198   0.185   0.194   0.215   0.247   0.250   0.220   0.220   0.227
   221.00    0.173   0.193   0.224   0.240   0.178   0.231   0.209   0.198   0.200   0.213   0.206   0.201   0.185   0.218   0.223   0.220   0.239   0.186   0.195   0.185   0.192   0.245   0.269   0.246   0.225   0.221   0.221   0.270   0.227   0.234   0.255   0.182   0.217   0.218   0.207   0.227   0.236   0.222   0.220   0.179   0.194   0.189   0.193   0.234   0.234   0.213   0.238   0.233   0.252   0.233   0.186   0.224   0.171   0.233   0.170   0.213   0.205   0.225   0.226
[...]
   196.00    0.189   0.231   0.194   0.211   0.171   0.194   0.176   0.209   0.224   0.217   0.242   0.169   0.179   0.207   0.173   0.221   0.276   0.282   0.199   0.242   0.188   0.206   0.208   0.184   0.231   0.287   0.236   0.195   0.196   0.243   0.242   0.238   0.247   0.267   0.292   0.212   0.189   0.173   0.223   0.175   0.187   0.210   0.265   0.204   0.181   0.201   0.199   0.218   0.285   0.246   0.231   0.260   0.271   0.243   0.286   0.244   0.257   0.211   0.170
   191.00    0.248   0.223   0.193   0.168   0.228   0.239   0.220   0.211   0.206   0.188   0.217   0.193   0.202   0.209   0.214   0.206   0.195   0.229   0.249   0.259   0.249   0.189   0.196   0.180   0.201   0.232   0.194   0.225   0.223   0.245   0.273   0.204   0.251   0.272   0.221   0.241   0.162   0.204   0.225   0.166   0.194   0.215   0.236   0.179   0.167   0.173   0.243   0.221   0.225   0.248   0.249   0.231   0.235   0.183   0.218   0.225   0.191   0.204   0.178
   186.00    0.228   0.232   0.174   0.212   0.255   0.210   0.170   0.205   0.195   0.194   0.207   0.193   0.186   0.209   0.194   0.202   0.264   0.198   0.214   0.226   0.221   0.232   0.192   0.186   0.207   0.171   0.172   0.177   0.176   0.239   0.222   0.194   0.231   0.209   0.197   0.174   0.225   0.202   0.186   0.202   0.188   0.175   0.203   0.243   0.242   0.246   0.285   0.298   0.207   0.206   0.234   0.247   0.168   0.195   0.181   0.168   0.182   0.238   0.191
   181.00    0.189   0.191   0.201   0.243   0.272   0.229   0.207   0.184   0.202   0.186   0.182   0.221   0.211   0.191   0.228   0.203   0.257   0.213   0.176   0.177   0.192   0.178   0.178   0.187   0.218   0.209   0.233   0.172   0.225   0.242   0.203   0.206   0.180   0.195   0.178   0.230   0.211   0.181   0.217   0.301   0.220   0.225   0.195   0.239   0.295   0.169   0.230   0.261   0.244   0.185   0.209   0.202   0.206   0.196   0.164   0.220   0.270   0.228   0.225
   176.00    0.195   0.216   0.163   0.215   0.210   0.198   0.224   0.197   0.185   0.163   0.228   0.229   0.172   0.179   0.183   0.183   0.244   0.234   0.196   0.182   0.187   0.199   0.212   0.231   0.204   0.181   0.204   0.195   0.216   0.233   0.228   0.218   0.187   0.217   0.205   0.208   0.202   0.178   0.242   0.264   0.291   0.289   0.249   0.292   0.281   0.235   0.224   0.275   0.296   0.216   0.182   0.206   0.201   0.188   0.208   0.172   0.227   0.235   0.215
   171.00    0.208   0.210   0.226   0.226   0.224   0.186   0.191   0.207   0.177   0.176   0.238   0.261   0.224   0.223   0.185   0.170   0.227   0.261   0.211   0.221   0.189   0.180   0.205   0.210   0.205   0.227   0.197   0.194   0.218   0.189   0.210   0.214   0.194   0.206   0.213   0.200   0.208   0.229   0.232   0.202   0.252   0.279   0.258   0.297   0.227   0.253   0.223   0.248   0.250   0.216   0.194   0.198   0.187   0.166   0.181   0.200   0.223   0.207   0.213
   166.00    0.186   0.185   0.186   0.167   0.182   0.191   0.167   0.186   0.189   0.181   0.220   0.193   0.201   0.202   0.198   0.171   0.276   0.337   0.197   0.223   0.190   0.194   0.205   0.197   0.161   0.198   0.199   0.200   0.189   0.180   0.156   0.212   0.183   0.186   0.219   0.270   0.258   0.198   0.205   0.217   0.247   0.279   0.308   0.275   0.217   0.179   0.194   0.213   0.209   0.180   0.177   0.192   0.212   0.191   0.212   0.199   0.221   0.229   0.186
   161.00    0.213   0.272   0.248   0.244   0.274   0.189   0.219   0.198   0.199   0.198   0.199   0.199   0.217   0.171   0.192   0.190   0.246   0.303   0.297   0.190   0.215   0.186   0.204   0.191   0.252   0.192   0.184   0.169   0.185   0.223   0.228   0.238   0.224   0.191   0.209   0.256   0.224   0.195   0.206   0.222   0.206   0.213   0.273   0.261   0.169   0.236   0.201   0.184   0.172   0.202   0.163   0.234   0.236   0.170   0.199   0.245   0.198   0.189   0.176
   156.00    0.224   0.251   0.238   0.265   0.241   0.207   0.254   0.186   0.198   0.214   0.190   0.218   0.257   0.235   0.216   0.214   0.265   0.226   0.270   0.246   0.197   0.230   0.191   0.205   0.216   0.194   0.204   0.222   0.208   0.197   0.178   0.199   0.180   0.221   0.165   0.202   0.215   0.243   0.175   0.203   0.185   0.210   0.222   0.261   0.198   0.190   0.252   0.155   0.218   0.223   0.243   0.240   0.211   0.173   0.223   0.223   0.205   0.217   0.180
   151.00    0.196   0.197   0.219   0.231   0.222   0.235   0.210   0.211   0.205   0.193   0.201   0.200   0.224   0.260   0.234   0.215   0.239   0.220   0.236   0.215   0.238   0.203   0.186   0.196   0.185   0.207   0.196   0.180   0.178   0.180   0.167   0.195   0.201   0.171   0.221   0.189   0.182   0.206   0.235   0.175   0.191   0.177   0.182   0.243   0.202   0.236   0.251   0.215   0.187   0.218   0.245   0.268   0.226   0.169   0.211   0.193   0.224   0.218   0.184
   146.00    0.200   0.174   0.200   0.192   0.209   0.219   0.154   0.170   0.206   0.171   0.194   0.193   0.230   0.285   0.236   0.209   0.192   0.188   0.215   0.247   0.218   0.169   0.172   0.226   0.210   0.225   0.187   0.202   0.181   0.192   0.180   0.178   0.189   0.261   0.170   0.189   0.168   0.261   0.273   0.214   0.175   0.203   0.190   0.215   0.225   0.220   0.241   0.198   0.253   0.170   0.183   0.224   0.256   0.158   0.244   0.262   0.279   0.208   0.240
   141.00    0.172   0.188   0.199   0.195   0.250   0.182   0.195   0.215   0.211   0.177   0.232   0.253   0.243   0.235   0.226   0.230   0.167   0.212   0.213   0.257   0.258   0.216   0.222   0.209   0.196   0.207   0.199   0.211   0.248   0.205   0.203   0.235   0.182   0.224   0.182   0.211   0.232   0.235   0.259   0.220   0.211   0.176   0.210   0.210   0.171   0.228   0.190   0.235   0.256   0.233   0.183   0.212   0.178   0.242   0.250   0.177   0.250   0.239   0.250
   136.00    0.186   0.224   0.187   0.233   0.253   0.257   0.202   0.206   0.225   0.247   0.224   0.196   0.202   0.201   0.198   0.198   0.184   0.217   0.250   0.278   0.236   0.217   0.207   0.197   0.212   0.220   0.193   0.208   0.213   0.180   0.193   0.231   0.214   0.228   0.205   0.241   0.247   0.180   0.243   0.175   0.186   0.220   0.211   0.182   0.277   0.196   0.206   0.235   0.236   0.222   0.167   0.208   0.221   0.243   0.278   0.278   0.243   0.213   0.210
   131.00    0.210   0.190   0.193   0.191   0.174   0.222   0.187   0.197   0.206   0.211   0.208   0.235   0.267   0.176   0.191   0.184   0.163   0.225   0.261   0.221   0.183   0.200   0.196   0.215   0.181   0.222   0.204   0.176   0.232   0.209   0.174   0.252   0.267   0.279   0.150   0.239   0.255   0.239   0.226   0.195   0.177   0.218   0.214   0.205   0.256   0.275   0.183   0.214   0.241   0.189   0.184   0.213   0.178   0.217   0.248   0.261   0.185   0.179   0.211
   126.00    0.188   0.186   0.186   0.171   0.204   0.217   0.243   0.212   0.170   0.204   0.222   0.228   0.250   0.221   0.190   0.187   0.187   0.184   0.201   0.212   0.176   0.172   0.188   0.203   0.200   0.184   0.211   0.225   0.202   0.210   0.195   0.231   0.214   0.223   0.235   0.178   0.243   0.179   0.184   0.182   0.220   0.255   0.207   0.183   0.206   0.185   0.212   0.199   0.218   0.206   0.221   0.208   0.189   0.240   0.262   0.260   0.146   0.200   0.195
   121.00    0.194   0.195   0.186   0.206   0.172   0.230   0.228   0.226   0.166   0.176   0.199   0.195   0.217   0.193   0.205   0.168   0.193   0.207   0.190   0.205   0.225   0.187   0.208   0.178   0.203   0.219   0.232   0.168   0.231   0.167   0.190   0.173   0.215   0.218   0.219   0.222   0.227   0.235   0.219   0.186   0.192   0.219   0.196   0.185   0.200   0.207   0.178   0.194   0.232   0.215   0.179   0.195   0.218   0.261   0.269   0.245   0.244   0.205   0.207
   116.00    0.195   0.183   0.198   0.196   0.210   0.215   0.189   0.176   0.190   0.171   0.166   0.221   0.175   0.180   0.185   0.203   0.221   0.176   0.185   0.212   0.181   0.201   0.206   0.190   0.245   0.165   0.216   0.232   0.192   0.205   0.204   0.185   0.202   0.220   0.176   0.192   0.214   0.194   0.193   0.216   0.183   0.210   0.153   0.179   0.188   0.217   0.182   0.204   0.187   0.210   0.205   0.214   0.188   0.247   0.266   0.249   0.200   0.183   0.213
   111.00    0.190   0.190   0.162   0.221   0.213   0.206   0.167   0.203   0.193   0.215   0.242   0.201   0.226   0.242   0.238   0.198   0.219   0.187   0.184   0.201   0.186   0.192   0.219   0.257   0.243   0.176   0.198   0.182   0.189   0.204   0.207   0.177   0.195   0.216   0.184   0.196   0.194   0.171   0.177   0.190   0.184   0.171   0.199   0.239   0.212   0.249   0.250   0.194   0.178   0.165   0.191   0.187   0.214   0.252   0.248   0.251   0.245   0.204   0.199
   106.00    0.252   0.184   0.209   0.199   0.200   0.198   0.214   0.176   0.254   0.265   0.236   0.192   0.230   0.200   0.199   0.223   0.170   0.204   0.206   0.185   0.196   0.242   0.202   0.266   0.177   0.206   0.211   0.211   0.199   0.216   0.193   0.230   0.233   0.253   0.242   0.231   0.209   0.219   0.156   0.208   0.171   0.200   0.190   0.179   0.230   0.200   0.202   0.194   0.193   0.226   0.179   0.207   0.164   0.212   0.257   0.275   0.219   0.196   0.182
   101.00    0.210   0.231   0.189   0.193   0.194   0.204   0.202   0.233   0.247   0.227   0.188   0.190   0.205   0.188   0.235   0.206   0.229   0.218   0.184   0.218   0.209   0.214   0.187   0.270   0.168   0.218   0.206   0.174   0.196   0.217   0.164   0.227   0.274   0.298   0.208   0.197   0.193   0.169   0.211   0.195   0.190   0.166   0.206   0.203   0.225   0.263   0.239   0.234   0.226   0.247   0.199   0.190   0.216   0.203   0.227   0.224   0.219   0.188   0.207
    96.00    0.197   0.219   0.176   0.176   0.172   0.203   0.211   0.167   0.188   0.226   0.178   0.171   0.200   0.176   0.204   0.199   0.161   0.225   0.267   0.219   0.228   0.181   0.182   0.229   0.223   0.229   0.184   0.209   0.182   0.184   0.181   0.217   0.236   0.258   0.272   0.219   0.205   0.202   0.193   0.211   0.211   0.220   0.272   0.275   0.217   0.239   0.252   0.182   0.197   0.229   0.198   0.251   0.174   0.188   0.219   0.181   0.202   0.255   0.215
    91.00    0.196   0.176   0.220   0.173   0.213   0.195   0.244   0.227   0.266   0.269   0.182   0.216   0.201   0.173   0.192   0.204   0.222   0.227   0.234   0.196   0.183   0.237   0.193   0.204   0.264   0.186   0.230   0.224   0.188   0.180   0.211   0.235   0.206   0.248   0.246   0.231   0.218   0.235   0.218   0.190   0.201   0.196   0.192   0.233   0.231   0.201   0.241   0.204   0.168   0.216   0.213   0.210   0.245   0.187   0.220   0.206   0.241   0.280   0.239
    86.00    0.190   0.181   0.199   0.195   0.234   0.225   0.222   0.288   0.263   0.240   0.220   0.260   0.185   0.188   0.175   0.184   0.206   0.201   0.191   0.253   0.211   0.216   0.204   0.229   0.219   0.240   0.212   0.211   0.231   0.191   0.211   0.202   0.213   0.221   0.198   0.186   0.186   0.194   0.194   0.175   0.175   0.179   0.195   0.176   0.206   0.199   0.223   0.177   0.199   0.181   0.224   0.261   0.252   0.174   0.197   0.247   0.217   0.266   0.252
    81.00    0.209   0.194   0.183   0.201   0.228   0.199   0.221   0.256   0.294   0.308   0.312   0.213   0.197   0.158   0.216   0.210   0.225   0.219   0.235   0.242   0.204   0.190   0.225   0.199   0.208   0.183   0.194   0.189   0.194   0.210   0.221   0.183   0.198   0.214   0.179   0.184   0.199   0.181   0.241   0.209   0.195   0.162   0.195   0.188   0.189   0.201   0.250   0.212   0.211   0.224   0.191   0.245   0.228   0.210   0.191   0.244   0.257   0.232   0.224
    76.00    0.225   0.219   0.168   0.176   0.212   0.227   0.237   0.235   0.243   0.260   0.253   0.273   0.243   0.218   0.232   0.217   0.193   0.218   0.228   0.239   0.196   0.182   0.215   0.224   0.205   0.205   0.181   0.209   0.227   0.180   0.220   0.261   0.272   0.255   0.235   0.206   0.215   0.228   0.213   0.197   0.179   0.188   0.211   0.185   0.208   0.176   0.228   0.210   0.194   0.205   0.236   0.247   0.249   0.193   0.224   0.199   0.211   0.197   0.201
    71.00    0.172   0.235   0.220   0.218   0.215   0.219   0.192   0.188   0.225   0.215   0.232   0.251   0.255   0.213   0.178   0.211   0.200   0.178   0.201   0.201   0.231   0.221   0.249   0.249   0.310   0.270   0.199   0.249   0.172   0.200   0.186   0.231   0.214   0.185   0.205   0.204   0.195   0.199   0.198   0.163   0.216   0.199   0.207   0.270   0.241   0.174   0.204   0.220   0.237   0.191   0.176   0.198   0.218   0.215   0.172   0.157   0.191   0.187   0.206
    66.00    0.207   0.240   0.204   0.227   0.174   0.181   0.175   0.191   0.221   0.187   0.192   0.179   0.197   0.196   0.191   0.211   0.195   0.196   0.167   0.227   0.281   0.207   0.240   0.271   0.285   0.239   0.205   0.216   0.252   0.222   0.229   0.248   0.194   0.201   0.226   0.169   0.184   0.228   0.201   0.206   0.212   0.176   0.212   0.210   0.246   0.176   0.190   0.212   0.207   0.179   0.230   0.234   0.227   0.192   0.252   0.232   0.253   0.214   0.200
    61.00    0.180   0.211   0.195   0.220   0.228   0.207   0.230   0.225   0.209   0.210   0.197   0.246   0.219   0.198   0.196   0.187   0.183   0.205   0.196   0.212   0.266   0.196   0.180   0.225   0.259   0.251   0.182   0.180   0.255   0.172   0.193   0.240   0.218   0.206   0.206   0.200   0.199   0.182   0.199   0.234   0.224   0.209   0.187   0.214   0.228   0.213   0.204   0.190   0.178   0.177   0.215   0.227   0.221   0.227   0.256   0.214   0.204   0.241   0.236
    56.00    0.199   0.200   0.204   0.173   0.215   0.223   0.247   0.181   0.199   0.223   0.189   0.199   0.191   0.172   0.204   0.179   0.235   0.216   0.165   0.196   0.227   0.251   0.232   0.257   0.277   0.207   0.194   0.179   0.221   0.226   0.217   0.203   0.212   0.244   0.202   0.206   0.184   0.226   0.180   0.194   0.179   0.216   0.219   0.207   0.193   0.229   0.195   0.196   0.187   0.240   0.184   0.240   0.153   0.220   0.283   0.179   0.178   0.187   0.242
    51.00    0.202   0.179   0.241   0.179   0.250   0.225   0.232   0.185   0.178   0.207   0.209   0.162   0.190   0.211   0.165   0.206   0.220   0.177   0.219   0.227   0.190   0.182   0.196   0.270   0.254   0.219   0.221   0.166   0.204   0.234   0.169   0.172   0.186   0.197   0.203   0.193   0.208   0.207   0.206   0.216   0.195   0.217   0.201   0.227   0.159   0.235   0.255   0.231   0.222   0.200   0.224   0.277   0.266   0.203   0.243   0.298   0.182   0.233   0.254
    46.00    0.253   0.282   0.211   0.227   0.252   0.221   0.237   0.209   0.229   0.194   0.187   0.212   0.163   0.194   0.183   0.221   0.208   0.205   0.172   0.237   0.148   0.186   0.210   0.231   0.216   0.210   0.203   0.157   0.176   0.208   0.164   0.205   0.226   0.183   0.198   0.185   0.214   0.188   0.222   0.197   0.187   0.194   0.218   0.186   0.263   0.259   0.199   0.190   0.230   0.191   0.220   0.264   0.186   0.180   0.253   0.309   0.284   0.256   0.225
    41.00    0.230   0.236   0.236   0.238   0.241   0.227   0.267   0.188   0.173   0.237   0.187   0.224   0.236   0.223   0.226   0.252   0.222   0.180   0.185   0.222   0.190   0.233   0.210   0.176   0.204   0.227   0.235   0.223   0.221   0.184   0.244   0.214   0.207   0.241   0.174   0.245   0.220   0.181   0.198   0.197   0.211   0.172   0.231   0.242   0.241   0.272   0.241   0.182   0.221   0.164   0.210   0.257   0.203   0.202   0.234   0.286   0.252   0.239   0.229
    36.00    0.193   0.184   0.216   0.182   0.229   0.235   0.260   0.225   0.249   0.233   0.197   0.184   0.196   0.213   0.210   0.235   0.209   0.180   0.178   0.230   0.216   0.193   0.190   0.228   0.167   0.210   0.196   0.189   0.182   0.184   0.247   0.255   0.258   0.253   0.199   0.218   0.262   0.173   0.204   0.182   0.219   0.239   0.280   0.214   0.175   0.244   0.249   0.241   0.184   0.188   0.230   0.211   0.187   0.228   0.162   0.245   0.285   0.272   0.257
    31.00    0.210   0.194   0.216   0.190   0.271   0.170   0.256   0.232   0.236   0.210   0.182   0.171   0.222   0.194   0.180   0.194   0.184   0.185   0.235   0.220   0.216   0.241   0.187   0.194   0.207   0.163   0.171   0.197   0.178   0.229   0.246   0.194   0.216   0.174   0.229   0.174   0.215   0.225   0.214   0.195   0.213   0.214   0.252   0.180   0.231   0.261   0.262   0.219   0.228   0.203   0.181   0.172   0.214   0.234   0.239   0.229   0.238   0.250   0.218
    26.00    0.174   0.184   0.184   0.210   0.222   0.210   0.220   0.239   0.202   0.199   0.197   0.175   0.210   0.224   0.192   0.203   0.175   0.245   0.213   0.224   0.191   0.170   0.203   0.203   0.186   0.206   0.225   0.274   0.230   0.223   0.232   0.220   0.245   0.237   0.215   0.201   0.197   0.208   0.173   0.193   0.240   0.178   0.222   0.239   0.220   0.192   0.203   0.177   0.195   0.242   0.174   0.186   0.234   0.198   0.214   0.198   0.226   0.240   0.210
    21.00    0.174   0.221   0.191   0.193   0.192   0.181   0.232   0.171   0.214   0.194   0.182   0.191   0.172   0.170   0.209   0.178   0.190   0.251   0.177   0.258   0.186   0.186   0.192   0.204   0.220   0.193   0.168   0.251   0.281   0.203   0.226   0.213   0.240   0.249   0.211   0.240   0.221   0.191   0.215   0.234   0.198   0.197   0.209   0.236   0.186   0.201   0.169   0.189   0.204   0.205   0.190   0.158   0.203   0.205   0.185   0.214   0.241   0.187   0.192
    16.00    0.213   0.173   0.184   0.231   0.147   0.234   0.206   0.221   0.207   0.198   0.198   0.209   0.173   0.232   0.203   0.183   0.213   0.201   0.234   0.286   0.251   0.180   0.185   0.241   0.167   0.211   0.203   0.219   0.248   0.215   0.189   0.171   0.214   0.212   0.202   0.211   0.195   0.201   0.217   0.212   0.234   0.196   0.187   0.205   0.195   0.224   0.193   0.190   0.170   0.226   0.188   0.206   0.188   0.235   0.178   0.244   0.213   0.183   0.200
    11.00    0.201   0.188   0.203   0.209   0.220   0.192   0.234   0.200   0.190   0.213   0.186   0.224   0.226   0.175   0.208   0.168   0.243   0.286   0.229   0.265   0.258   0.231   0.190   0.223   0.175   0.214   0.167   0.213   0.202   0.195   0.192   0.202   0.198   0.250   0.220   0.281   0.233   0.188   0.203   0.167   0.192   0.190   0.203   0.215   0.189   0.199   0.194   0.206   0.195   0.171   0.183   0.205   0.209   0.224   0.231   0.253   0.202   0.188   0.197
     6.00    0.190   0.231   0.173   0.197   0.221   0.178   0.203   0.222   0.193   0.182   0.168   0.210   0.255   0.254   0.192   0.231   0.236   0.253   0.272   0.289   0.263   0.191   0.202   0.230   0.199   0.198   0.220   0.223   0.188   0.198   0.159   0.183   0.214   0.247   0.266   0.254   0.261   0.234   0.175   0.248   0.244   0.208   0.242   0.231   0.175   0.235   0.209   0.181   0.194   0.187   0.215   0.222   0.193   0.225   0.190   0.231   0.183   0.236   0.193
     1.00    0.214   0.212   0.226   0.170   0.193   0.204   0.213   0.243   0.265   0.257   0.261   0.260   0.276   0.206   0.183   0.201   0.221   0.251   0.259   0.244   0.264   0.163   0.212   0.249   0.202   0.204   0.212   0.195   0.234   0.181   0.180   0.195   0.181   0.212   0.246   0.210   0.229   0.254   0.275   0.274   0.255   0.201   0.181   0.231   0.215   0.206   0.239   0.203   0.203   0.197   0.202   0.202   0.231   0.255   0.265   0.209   0.204   0.233   0.236

   Mean standard deviation across all grid points:
      u component:    0.235 m/s
      v component:    0.266 m/s
      w component:    0.211 m/s


U-component (X) statistics from the interpolated hub point:

   Mean =   5.2698 m/s
   TI   =   3.8012 %


Processing complete.  651.63 CPU seconds used.
