
This summary file was generated by TurbSim (from OpenFAST-v3.5.0) on 23-Apr-2024 at 22:01:29.


Runtime Options:

   2318573  Random seed #1
    RANLUX  Type of random number generator
         F  Output binary HH turbulence parameters?
         F  Output formatted turbulence parameters?
         F  Output AeroDyn HH files?
         T  Output AeroDyn FF files?
         F  Output BLADED FF files?
         F  Output tower data?
         F  Output HAWC FF files?
         F  Output formatted FF files?
         T  Output coherent turbulence time step file?
 0 -  NONE  IEC turbulence models scaled to exact specified standard deviation


Turbine/Model Specifications:

        61  Vertical grid-point matrix dimension
        59  Horizontal grid-point matrix dimension
     0.300  Time step [seconds]
    20.000  Analysis time [seconds]
    20.000  Usable output time [seconds]
   156.000  Hub height [m]
   300.000  Grid height [m]
   290.000  Grid width [m]
     0.000  Vertical flow angle [degrees]
     0.000  Horizontal flow angle [degrees]


Meteorological Boundary Conditions:

    TIMESR  User-input time series spectral model
       N/A  IEC standard
       N/A  IEC turbulence characteristic
       N/A  IEC turbulence type
       N/A  IEC Extreme Turbulence Model (ETM) "c" parameter [m/s]
       PL   Wind profile type
   150.000  Reference height [m]
     5.245  Reference wind speed [m/s]
       N/A  Jet height [m]
     0.120  Power law exponent
     0.030  Surface roughness length [m]


Non-IEC Meteorological Boundary Conditions:

    45.000  Site latitude [degrees]
     0.050  Gradient Richardson number
     0.237  Friction or shear velocity [m/s]
       N/A  Mixing layer depth [m]
       N/A  Mean hub u'w' Reynolds stress
       N/A  Mean hub u'v' Reynolds stress
       N/A  Mean hub v'w' Reynolds stress


Spatial Coherence Models:

       IEC  u-component coherence model
       IEC  v-component coherence model
       IEC  w-component coherence model
(   12.000, 0.353E-03)  u-component coherence parameters
(   12.000, 0.353E-03)  v-component coherence parameters
(   12.000, 0.353E-03)  w-component coherence parameters
       N/A  Coherence exponent


Coherent Turbulence Scaling Parameters:

.\EventData
            Name of the path containing the coherent turbulence data files
       les  Type of coherent turbulence data files
     1.000  Disturbance scale (ratio of wave height to rotor diameter)
     0.500  Fractional location of tower centerline from right
     0.500  Fractional location of hub height from the bottom of the dataset
    30.000  Minimum start time for coherent structures [seconds]


Profiles from User-Defined Time-Series Input:

  Height   Wind Speed   Horizontal Angle   Vertical Angle
   (m)        (m/s)          (deg)              (deg)    
  ------   ----------   ----------------   --------------
  141.00       5.21           0.00                0.00


You have requested that the following file(s) be generated:

   /projects/rlfarmcontr/RLControl_Parallel/RLControl/windfarm_v1p0/FFSetup/../FFSim/Sim_1713930974.7847342/Cond00_v05.2_PL0.12_TI10/Case1_wdirp223_yawCase2/Seed_0/TurbSim/HighT2.bts (AeroDyn/TurbSim full-field wind file)


Turbulence Simulation Scaling Parameter Summary:

   Turbulence model used                            =  User-input time series
   Gradient Richardson number                       =    0.050
   Monin-Obukhov (M-O) z/L parameter                =    0.067
   Monin-Obukhov (M-O) length scale                 = 2340.000 m
   Mean wind speed at hub height                    =    5.270 m/s

   Wind profile type                                =  Power law
   Power law exponent                               =    0.120
   Mean shear across rotor disk                     =    0.006 (m/s)/m
   Assumed rotor diameter                           =  290.000 m
   Surface roughness length                         =    0.030 m

   Nyquist frequency of turbulent wind field        =    1.667 Hz

   Number of time steps in the FFT                  =       68
   Number of time steps output                      =       68
   Number of points simulated                       =     3600


Mean Flow Angles:

   Vertical   =   0.0 degrees
   Horizontal =   0.0 degrees

Mean Wind Speed Profile:

   Height    Wind Speed   Horizontal Angle  Vertical Angle  U-comp (X)   V-comp (Y)   W-comp (Z)
     (m)        (m/s)         (degrees)       (degrees)       (m/s)        (m/s)        (m/s)   
   ------    ----------   ----------------  --------------  ----------   ----------   ----------
    301.0        5.70            0.00            0.00          5.70         0.00         0.00
    296.0        5.69            0.00            0.00          5.69         0.00         0.00
    291.0        5.68            0.00            0.00          5.68         0.00         0.00
    286.0        5.67            0.00            0.00          5.67         0.00         0.00
    281.0        5.66            0.00            0.00          5.66         0.00         0.00
    276.0        5.64            0.00            0.00          5.64         0.00         0.00
    271.0        5.63            0.00            0.00          5.63         0.00         0.00
    266.0        5.62            0.00            0.00          5.62         0.00         0.00
    261.0        5.61            0.00            0.00          5.61         0.00         0.00
    256.0        5.59            0.00            0.00          5.59         0.00         0.00
    251.0        5.58            0.00            0.00          5.58         0.00         0.00
    246.0        5.57            0.00            0.00          5.57         0.00         0.00
    241.0        5.55            0.00            0.00          5.55         0.00         0.00
    236.0        5.54            0.00            0.00          5.54         0.00         0.00
    231.0        5.52            0.00            0.00          5.52         0.00         0.00
    226.0        5.51            0.00            0.00          5.51         0.00         0.00
    221.0        5.49            0.00            0.00          5.49         0.00         0.00
    216.0        5.48            0.00            0.00          5.48         0.00         0.00
    211.0        5.46            0.00            0.00          5.46         0.00         0.00
    206.0        5.45            0.00            0.00          5.45         0.00         0.00
    201.0        5.43            0.00            0.00          5.43         0.00         0.00
    196.0        5.42            0.00            0.00          5.42         0.00         0.00
    191.0        5.40            0.00            0.00          5.40         0.00         0.00
    186.0        5.38            0.00            0.00          5.38         0.00         0.00
    181.0        5.36            0.00            0.00          5.36         0.00         0.00
    176.0        5.35            0.00            0.00          5.35         0.00         0.00
    171.0        5.33            0.00            0.00          5.33         0.00         0.00
    166.0        5.31            0.00            0.00          5.31         0.00         0.00
    161.0        5.29            0.00            0.00          5.29         0.00         0.00
    156.0        5.27            0.00            0.00          5.27         0.00         0.00
    151.0        5.25            0.00            0.00          5.25         0.00         0.00
    146.0        5.23            0.00            0.00          5.23         0.00         0.00
    141.0        5.21            0.00            0.00          5.21         0.00         0.00
    136.0        5.18            0.00            0.00          5.18         0.00         0.00
    131.0        5.16            0.00            0.00          5.16         0.00         0.00
    126.0        5.14            0.00            0.00          5.14         0.00         0.00
    121.0        5.11            0.00            0.00          5.11         0.00         0.00
    116.0        5.09            0.00            0.00          5.09         0.00         0.00
    111.0        5.06            0.00            0.00          5.06         0.00         0.00
    106.0        5.03            0.00            0.00          5.03         0.00         0.00
    101.0        5.00            0.00            0.00          5.00         0.00         0.00
     96.0        4.97            0.00            0.00          4.97         0.00         0.00
     91.0        4.94            0.00            0.00          4.94         0.00         0.00
     86.0        4.91            0.00            0.00          4.91         0.00         0.00
     81.0        4.87            0.00            0.00          4.87         0.00         0.00
     76.0        4.83            0.00            0.00          4.83         0.00         0.00
     71.0        4.79            0.00            0.00          4.79         0.00         0.00
     66.0        4.75            0.00            0.00          4.75         0.00         0.00
     61.0        4.71            0.00            0.00          4.71         0.00         0.00
     56.0        4.66            0.00            0.00          4.66         0.00         0.00
     51.0        4.61            0.00            0.00          4.61         0.00         0.00
     46.0        4.55            0.00            0.00          4.55         0.00         0.00
     41.0        4.49            0.00            0.00          4.49         0.00         0.00
     36.0        4.42            0.00            0.00          4.42         0.00         0.00
     31.0        4.34            0.00            0.00          4.34         0.00         0.00
     26.0        4.25            0.00            0.00          4.25         0.00         0.00
     21.0        4.14            0.00            0.00          4.14         0.00         0.00
     16.0        4.01            0.00            0.00          4.01         0.00         0.00
     11.0        3.83            0.00            0.00          3.83         0.00         0.00
      6.0        3.56            0.00            0.00          3.56         0.00         0.00
      1.0        2.87            0.00            0.00          2.87         0.00         0.00


Harvested Random Seeds after Generation of the Random Numbers:

      3411900 K 1
            0 K 2


Hub-Height Simulated Turbulence Statistical Summary:

   Type of Wind        Min (m/s)   Mean (m/s)    Max (m/s)  Sigma (m/s)       TI (%)
   ----------------    ---------   ----------    ---------  -----------       ------
   Longitudinal (u)         4.82         5.27         5.69        0.195        3.706
   Lateral (v)             -0.49        -0.00         0.40        0.199        3.767
   Vertical (w)            -0.50         0.00         0.37        0.214        4.054
   U component              4.82         5.27         5.69        0.195        3.706
   V component             -0.49        -0.00         0.40        0.199        3.767
   W component             -0.50         0.00         0.37        0.214        4.054
   Horizontal (U&V)         4.83         5.27         5.70        0.194        3.676
   Total                    4.83         5.28         5.71        0.193        3.658

                       Min Reynolds     Mean Reynolds    Max Reynolds    Correlation
   Product             Stress (m/s)^2   Stress (m/s)^2   Stress (m/s)^2  Coefficient
   ----------------    --------------   --------------   --------------  -----------
   u'w'                     -0.044             0.016             0.137         0.385
   u'v'                     -0.150             0.001             0.150         0.019
   v'w'                     -0.140            -0.001             0.110        -0.034


   Friction Velocity (Ustar)  =      0.127 m/s
   Maximum Instantaneous TKE  =      0.203 (m/s)^2
   Maximum Instantaneous CTKE =      0.117 (m/s)^2


Grid Point Variance Summary:

   Y-coord -145.00 -140.00 -135.00 -130.00 -125.00 -120.00 -115.00 -110.00 -105.00 -100.00  -95.00  -90.00  -85.00  -80.00  -75.00  -70.00  -65.00  -60.00  -55.00  -50.00  -45.00  -40.00  -35.00  -30.00  -25.00  -20.00  -15.00  -10.00   -5.00    0.00    5.00   10.00   15.00   20.00   25.00   30.00   35.00   40.00   45.00   50.00   55.00   60.00   65.00   70.00   75.00   80.00   85.00   90.00   95.00  100.00  105.00  110.00  115.00  120.00  125.00  130.00  135.00  140.00  145.00

   Height   Standard deviation at grid points for the u component:
   301.00    0.167   0.259   0.190   0.245   0.229   0.212   0.216   0.198   0.223   0.316   0.329   0.198   0.190   0.286   0.189   0.260   0.183   0.193   0.173   0.186   0.194   0.239   0.212   0.221   0.238   0.234   0.243   0.236   0.248   0.263   0.258   0.261   0.301   0.225   0.283   0.298   0.175   0.271   0.238   0.237   0.205   0.331   0.209   0.239   0.237   0.299   0.245   0.294   0.354   0.266   0.268   0.229   0.243   0.171   0.206   0.161   0.232   0.297   0.186
   296.00    0.278   0.285   0.313   0.264   0.238   0.218   0.218   0.185   0.197   0.232   0.248   0.201   0.215   0.231   0.215   0.239   0.217   0.260   0.209   0.249   0.213   0.256   0.180   0.199   0.260   0.213   0.211   0.274   0.201   0.238   0.247   0.346   0.381   0.176   0.268   0.271   0.260   0.229   0.297   0.321   0.238   0.319   0.308   0.252   0.321   0.189   0.313   0.225   0.296   0.236   0.208   0.183   0.188   0.215   0.215   0.178   0.267   0.298   0.210
   291.00    0.205   0.218   0.251   0.290   0.291   0.217   0.178   0.189   0.197   0.169   0.296   0.211   0.199   0.249   0.222   0.212   0.187   0.215   0.336   0.196   0.218   0.174   0.227   0.209   0.270   0.207   0.193   0.213   0.218   0.272   0.294   0.327   0.316   0.257   0.255   0.250   0.276   0.260   0.353   0.194   0.272   0.232   0.357   0.258   0.361   0.288   0.229   0.283   0.349   0.201   0.186   0.188   0.243   0.247   0.185   0.236   0.208   0.272   0.297
   286.00    0.191   0.201   0.169   0.192   0.170   0.180   0.205   0.273   0.167   0.253   0.339   0.180   0.216   0.167   0.214   0.221   0.323   0.355   0.303   0.255   0.219   0.272   0.255   0.224   0.216   0.248   0.211   0.178   0.201   0.196   0.238   0.302   0.338   0.369   0.357   0.168   0.173   0.251   0.315   0.363   0.214   0.255   0.326   0.375   0.313   0.305   0.183   0.182   0.277   0.220   0.227   0.269   0.160   0.204   0.201   0.258   0.324   0.182   0.228
   281.00    0.227   0.260   0.212   0.223   0.278   0.281   0.267   0.182   0.257   0.283   0.319   0.265   0.226   0.272   0.334   0.308   0.324   0.274   0.275   0.165   0.278   0.281   0.362   0.353   0.345   0.168   0.156   0.280   0.175   0.180   0.212   0.273   0.221   0.270   0.315   0.230   0.287   0.228   0.231   0.234   0.284   0.311   0.315   0.339   0.269   0.211   0.169   0.203   0.242   0.234   0.304   0.310   0.291   0.295   0.236   0.235   0.306   0.208   0.267
   276.00    0.268   0.203   0.190   0.223   0.287   0.209   0.222   0.172   0.212   0.192   0.189   0.194   0.252   0.293   0.221   0.261   0.222   0.272   0.290   0.280   0.254   0.249   0.314   0.390   0.322   0.333   0.226   0.369   0.234   0.262   0.264   0.197   0.183   0.242   0.284   0.196   0.217   0.230   0.196   0.209   0.212   0.234   0.237   0.246   0.244   0.248   0.204   0.256   0.232   0.289   0.311   0.270   0.211   0.187   0.230   0.220   0.231   0.290   0.231
   271.00    0.270   0.283   0.306   0.190   0.268   0.193   0.214   0.228   0.200   0.206   0.233   0.300   0.243   0.289   0.207   0.198   0.225   0.249   0.206   0.208   0.301   0.205   0.274   0.337   0.261   0.304   0.366   0.367   0.370   0.185   0.278   0.149   0.219   0.279   0.224   0.337   0.182   0.269   0.199   0.251   0.186   0.307   0.291   0.264   0.194   0.240   0.285   0.191   0.230   0.237   0.240   0.323   0.239   0.195   0.223   0.174   0.227   0.301   0.174
   266.00    0.253   0.318   0.207   0.286   0.246   0.279   0.248   0.224   0.215   0.178   0.179   0.249   0.256   0.220   0.243   0.207   0.209   0.255   0.173   0.199   0.225   0.301   0.316   0.311   0.281   0.186   0.270   0.366   0.219   0.307   0.232   0.221   0.221   0.214   0.263   0.329   0.282   0.233   0.259   0.188   0.246   0.303   0.248   0.245   0.224   0.200   0.217   0.195   0.213   0.294   0.384   0.337   0.361   0.329   0.209   0.260   0.237   0.279   0.201
   261.00    0.272   0.206   0.232   0.298   0.240   0.247   0.210   0.246   0.164   0.218   0.296   0.238   0.210   0.220   0.191   0.199   0.228   0.266   0.230   0.234   0.181   0.214   0.282   0.230   0.279   0.154   0.221   0.284   0.291   0.325   0.192   0.215   0.277   0.221   0.210   0.242   0.209   0.182   0.214   0.210   0.199   0.237   0.302   0.206   0.208   0.239   0.183   0.226   0.268   0.287   0.308   0.298   0.268   0.221   0.183   0.227   0.227   0.200   0.217
   256.00    0.198   0.193   0.183   0.186   0.199   0.227   0.262   0.183   0.215   0.184   0.247   0.276   0.191   0.248   0.274   0.178   0.179   0.219   0.175   0.252   0.185   0.218   0.224   0.240   0.195   0.220   0.214   0.252   0.322   0.219   0.298   0.269   0.318   0.207   0.204   0.229   0.239   0.191   0.231   0.196   0.208   0.266   0.241   0.248   0.244   0.176   0.269   0.180   0.215   0.190   0.203   0.207   0.213   0.220   0.283   0.166   0.243   0.196   0.229
   251.00    0.243   0.270   0.306   0.345   0.198   0.250   0.259   0.175   0.257   0.211   0.272   0.181   0.229   0.225   0.158   0.271   0.331   0.276   0.258   0.201   0.210   0.231   0.211   0.192   0.209   0.169   0.266   0.195   0.212   0.242   0.275   0.280   0.254   0.184   0.218   0.200   0.201   0.231   0.208   0.242   0.261   0.257   0.246   0.238   0.193   0.252   0.283   0.200   0.197   0.200   0.250   0.235   0.300   0.243   0.201   0.272   0.257   0.282   0.161
   246.00    0.227   0.206   0.262   0.332   0.228   0.161   0.236   0.205   0.181   0.200   0.260   0.272   0.267   0.191   0.244   0.307   0.329   0.182   0.164   0.225   0.191   0.246   0.168   0.249   0.188   0.198   0.302   0.222   0.201   0.215   0.206   0.213   0.273   0.183   0.222   0.261   0.293   0.200   0.233   0.240   0.252   0.205   0.265   0.312   0.302   0.246   0.291   0.347   0.299   0.372   0.223   0.273   0.175   0.293   0.238   0.179   0.266   0.222   0.271
   241.00    0.231   0.222   0.185   0.227   0.259   0.232   0.320   0.313   0.306   0.161   0.255   0.213   0.242   0.186   0.189   0.261   0.202   0.216   0.211   0.252   0.217   0.231   0.192   0.202   0.230   0.208   0.260   0.189   0.195   0.227   0.205   0.260   0.298   0.262   0.173   0.195   0.313   0.197   0.171   0.189   0.262   0.270   0.176   0.316   0.239   0.184   0.256   0.282   0.355   0.268   0.335   0.233   0.260   0.279   0.174   0.293   0.217   0.220   0.262
   236.00    0.212   0.184   0.204   0.194   0.208   0.161   0.230   0.296   0.305   0.302   0.202   0.246   0.188   0.172   0.203   0.250   0.233   0.230   0.176   0.200   0.244   0.196   0.214   0.247   0.180   0.187   0.229   0.182   0.221   0.243   0.205   0.194   0.236   0.207   0.256   0.289   0.303   0.286   0.203   0.236   0.333   0.277   0.352   0.350   0.299   0.180   0.187   0.224   0.262   0.348   0.267   0.241   0.290   0.216   0.220   0.292   0.354   0.350   0.200
   231.00    0.254   0.244   0.215   0.227   0.283   0.325   0.262   0.269   0.223   0.272   0.309   0.192   0.259   0.210   0.241   0.304   0.199   0.196   0.206   0.196   0.181   0.248   0.229   0.181   0.280   0.221   0.222   0.263   0.259   0.226   0.230   0.211   0.202   0.200   0.254   0.223   0.193   0.229   0.276   0.193   0.248   0.251   0.244   0.294   0.324   0.209   0.196   0.232   0.185   0.288   0.295   0.374   0.359   0.354   0.371   0.229   0.261   0.308   0.329
   226.00    0.234   0.197   0.174   0.230   0.290   0.231   0.237   0.187   0.193   0.225   0.229   0.195   0.202   0.256   0.313   0.193   0.244   0.277   0.237   0.311   0.266   0.254   0.195   0.195   0.236   0.281   0.163   0.217   0.233   0.195   0.211   0.244   0.193   0.241   0.171   0.183   0.213   0.264   0.324   0.216   0.239   0.225   0.196   0.257   0.219   0.255   0.222   0.180   0.174   0.169   0.301   0.386   0.332   0.227   0.242   0.250   0.201   0.279   0.213
   221.00    0.166   0.253   0.223   0.212   0.201   0.291   0.167   0.190   0.224   0.219   0.188   0.167   0.208   0.238   0.215   0.264   0.257   0.355   0.212   0.164   0.265   0.227   0.249   0.233   0.234   0.226   0.242   0.291   0.189   0.286   0.382   0.256   0.230   0.259   0.218   0.292   0.245   0.167   0.239   0.316   0.214   0.271   0.169   0.210   0.185   0.238   0.250   0.253   0.231   0.276   0.303   0.295   0.305   0.322   0.376   0.284   0.221   0.288   0.242
   216.00    0.210   0.197   0.313   0.341   0.181   0.265   0.307   0.188   0.211   0.240   0.187   0.255   0.292   0.198   0.286   0.198   0.255   0.338   0.391   0.219   0.195   0.197   0.208   0.227   0.293   0.338   0.214   0.180   0.254   0.323   0.384   0.353   0.224   0.316   0.182   0.252   0.299   0.196   0.226   0.260   0.281   0.337   0.380   0.210   0.173   0.155   0.201   0.218   0.202   0.188   0.235   0.183   0.160   0.262   0.319   0.323   0.206   0.281   0.197
   211.00    0.276   0.306   0.285   0.247   0.329   0.210   0.253   0.196   0.253   0.191   0.154   0.241   0.319   0.345   0.283   0.225   0.263   0.241   0.360   0.377   0.305   0.199   0.234   0.282   0.323   0.358   0.332   0.208   0.212   0.234   0.266   0.301   0.302   0.302   0.221   0.180   0.250   0.217   0.217   0.222   0.246   0.322   0.359   0.335   0.232   0.274   0.260   0.220   0.177   0.182   0.228   0.234   0.257   0.317   0.339   0.307   0.214   0.279   0.323
   206.00    0.212   0.230   0.276   0.323   0.385   0.245   0.212   0.194   0.275   0.373   0.223   0.356   0.260   0.297   0.211   0.333   0.326   0.378   0.395   0.423   0.389   0.277   0.282   0.317   0.297   0.282   0.230   0.196   0.222   0.195   0.276   0.203   0.254   0.202   0.230   0.283   0.206   0.174   0.234   0.201   0.199   0.235   0.282   0.197   0.340   0.200   0.212   0.266   0.240   0.236   0.245   0.246   0.265   0.365   0.225   0.292   0.186   0.161   0.255
   201.00    0.195   0.216   0.180   0.293   0.355   0.194   0.199   0.232   0.282   0.323   0.360   0.364   0.287   0.301   0.367   0.216   0.348   0.430   0.354   0.387   0.398   0.174   0.190   0.181   0.213   0.169   0.234   0.179   0.211   0.276   0.203   0.231   0.231   0.249   0.252   0.248   0.223   0.182   0.233   0.170   0.223   0.205   0.263   0.318   0.298   0.306   0.190   0.218   0.211   0.258   0.219   0.199   0.228   0.315   0.342   0.302   0.207   0.289   0.275
   196.00    0.275   0.266   0.301   0.202   0.288   0.270   0.229   0.190   0.248   0.279   0.268   0.238   0.265   0.195   0.261   0.320   0.362   0.358   0.348   0.342   0.293   0.218   0.210   0.286   0.287   0.318   0.179   0.276   0.206   0.208   0.305   0.355   0.193   0.247   0.189   0.241   0.192   0.211   0.210   0.180   0.226   0.201   0.287   0.329   0.194   0.200   0.263   0.162   0.195   0.184   0.247   0.189   0.190   0.286   0.299   0.306   0.244   0.270   0.190
   191.00    0.242   0.260   0.275   0.242   0.226   0.201   0.165   0.222   0.235   0.251   0.192   0.183   0.243   0.331   0.248   0.351   0.230   0.233   0.250   0.220   0.270   0.257   0.296   0.205   0.224   0.224   0.245   0.249   0.284   0.204   0.242   0.305   0.242   0.250   0.226   0.219   0.284   0.197   0.179   0.199   0.238   0.278   0.240   0.295   0.194   0.265   0.196   0.192   0.202   0.246   0.228   0.272   0.302   0.277   0.276   0.278   0.213   0.185   0.204
   186.00    0.257   0.247   0.236   0.173   0.252   0.165   0.207   0.250   0.251   0.203   0.173   0.184   0.267   0.302   0.302   0.342   0.358   0.233   0.334   0.335   0.309   0.336   0.348   0.275   0.188   0.246   0.218   0.176   0.198   0.211   0.177   0.255   0.191   0.222   0.252   0.235   0.247   0.176   0.209   0.183   0.241   0.311   0.285   0.241   0.204   0.229   0.251   0.221   0.189   0.199   0.198   0.215   0.316   0.238   0.173   0.176   0.213   0.218   0.242
   181.00    0.254   0.197   0.203   0.206   0.183   0.218   0.211   0.195   0.254   0.209   0.177   0.298   0.325   0.355   0.263   0.259   0.272   0.247   0.270   0.308   0.160   0.264   0.309   0.260   0.211   0.266   0.168   0.216   0.203   0.189   0.207   0.258   0.170   0.233   0.208   0.193   0.188   0.215   0.188   0.222   0.209   0.209   0.241   0.189   0.193   0.198   0.172   0.192   0.179   0.234   0.288   0.206   0.241   0.290   0.167   0.228   0.306   0.175   0.217
   176.00    0.161   0.220   0.184   0.267   0.207   0.229   0.253   0.288   0.284   0.193   0.251   0.263   0.303   0.305   0.172   0.289   0.223   0.212   0.208   0.256   0.222   0.291   0.295   0.188   0.180   0.209   0.209   0.202   0.221   0.249   0.227   0.216   0.240   0.211   0.248   0.217   0.231   0.228   0.189   0.222   0.183   0.209   0.203   0.176   0.229   0.249   0.229   0.255   0.295   0.282   0.310   0.288   0.224   0.250   0.314   0.166   0.269   0.261   0.195
   171.00    0.309   0.216   0.268   0.354   0.231   0.358   0.260   0.271   0.243   0.202   0.183   0.262   0.196   0.209   0.266   0.322   0.198   0.222   0.292   0.198   0.239   0.303   0.210   0.209   0.220   0.277   0.196   0.181   0.217   0.218   0.195   0.237   0.215   0.269   0.315   0.186   0.245   0.265   0.188   0.239   0.201   0.224   0.191   0.237   0.279   0.196   0.201   0.271   0.182   0.253   0.244   0.215   0.269   0.217   0.191   0.220   0.293   0.273   0.194
   166.00    0.294   0.322   0.195   0.263   0.330   0.331   0.277   0.184   0.262   0.206   0.267   0.225   0.214   0.180   0.261   0.207   0.292   0.201   0.249   0.151   0.261   0.287   0.192   0.235   0.210   0.290   0.212   0.206   0.255   0.187   0.222   0.262   0.291   0.238   0.324   0.222   0.183   0.228   0.210   0.190   0.198   0.203   0.261   0.171   0.204   0.265   0.194   0.261   0.236   0.266   0.200   0.168   0.229   0.155   0.225   0.206   0.299   0.282   0.206
   161.00    0.193   0.262   0.300   0.210   0.244   0.231   0.228   0.239   0.207   0.312   0.272   0.276   0.267   0.284   0.242   0.228   0.216   0.283   0.206   0.180   0.278   0.272   0.320   0.203   0.191   0.214   0.204   0.210   0.196   0.226   0.195   0.212   0.245   0.358   0.374   0.273   0.269   0.226   0.179   0.168   0.284   0.275   0.191   0.259   0.184   0.247   0.229   0.204   0.245   0.292   0.211   0.211   0.195   0.292   0.262   0.198   0.254   0.201   0.210
   156.00    0.220   0.185   0.236   0.250   0.217   0.238   0.197   0.172   0.230   0.247   0.241   0.326   0.255   0.301   0.155   0.204   0.198   0.280   0.220   0.202   0.271   0.219   0.255   0.261   0.223   0.211   0.198   0.207   0.227   0.195   0.185   0.239   0.298   0.326   0.291   0.291   0.187   0.230   0.208   0.213   0.275   0.291   0.206   0.259   0.245   0.256   0.191   0.222   0.200   0.194   0.249   0.183   0.238   0.314   0.224   0.196   0.305   0.321   0.268
   151.00    0.187   0.203   0.211   0.169   0.231   0.288   0.201   0.221   0.273   0.192   0.185   0.281   0.308   0.301   0.220   0.274   0.275   0.200   0.291   0.271   0.193   0.213   0.230   0.266   0.268   0.238   0.257   0.169   0.167   0.171   0.235   0.184   0.222   0.260   0.203   0.264   0.278   0.218   0.243   0.164   0.218   0.228   0.210   0.252   0.208   0.268   0.167   0.227   0.267   0.205   0.192   0.166   0.284   0.252   0.353   0.287   0.243   0.268   0.230
   146.00    0.297   0.250   0.237   0.288   0.257   0.266   0.242   0.203   0.219   0.264   0.330   0.329   0.240   0.266   0.318   0.273   0.195   0.223   0.255   0.188   0.204   0.235   0.240   0.246   0.215   0.190   0.243   0.327   0.215   0.297   0.323   0.343   0.179   0.213   0.253   0.301   0.318   0.168   0.237   0.228   0.240   0.198   0.196   0.210   0.274   0.217   0.212   0.170   0.199   0.238   0.299   0.237   0.304   0.270   0.228   0.290   0.319   0.252   0.243
   141.00    0.236   0.203   0.217   0.202   0.182   0.188   0.248   0.155   0.173   0.281   0.280   0.330   0.312   0.314   0.310   0.206   0.186   0.212   0.239   0.167   0.223   0.195   0.256   0.265   0.273   0.224   0.229   0.236   0.263   0.266   0.236   0.295   0.163   0.231   0.235   0.208   0.204   0.226   0.169   0.283   0.202   0.191   0.223   0.294   0.224   0.179   0.192   0.262   0.285   0.335   0.257   0.183   0.264   0.263   0.267   0.207   0.244   0.196   0.215
   136.00    0.250   0.185   0.242   0.170   0.261   0.233   0.273   0.220   0.224   0.301   0.360   0.307   0.228   0.319   0.212   0.277   0.291   0.191   0.220   0.180   0.234   0.249   0.268   0.306   0.344   0.302   0.282   0.323   0.257   0.169   0.249   0.233   0.229   0.219   0.193   0.215   0.275   0.202   0.237   0.285   0.175   0.270   0.164   0.244   0.223   0.201   0.209   0.312   0.190   0.265   0.310   0.340   0.347   0.328   0.199   0.167   0.237   0.294   0.210
   131.00    0.209   0.247   0.226   0.212   0.264   0.223   0.268   0.247   0.164   0.233   0.300   0.244   0.173   0.257   0.318   0.254   0.224   0.202   0.290   0.222   0.274   0.261   0.276   0.253   0.337   0.231   0.223   0.325   0.228   0.151   0.211   0.167   0.224   0.204   0.216   0.207   0.304   0.220   0.203   0.192   0.197   0.254   0.270   0.202   0.294   0.227   0.262   0.308   0.260   0.286   0.297   0.271   0.221   0.231   0.207   0.214   0.231   0.229   0.194
   126.00    0.180   0.245   0.204   0.215   0.185   0.225   0.244   0.218   0.290   0.274   0.234   0.265   0.200   0.262   0.199   0.241   0.217   0.184   0.241   0.303   0.329   0.328   0.265   0.219   0.233   0.279   0.317   0.324   0.209   0.283   0.221   0.282   0.178   0.231   0.216   0.285   0.325   0.198   0.298   0.180   0.174   0.234   0.179   0.176   0.212   0.239   0.222   0.229   0.258   0.168   0.248   0.246   0.301   0.238   0.210   0.255   0.196   0.207   0.335
   121.00    0.264   0.261   0.195   0.186   0.212   0.219   0.282   0.148   0.223   0.246   0.244   0.303   0.269   0.189   0.250   0.196   0.260   0.210   0.192   0.232   0.266   0.264   0.183   0.230   0.229   0.206   0.217   0.225   0.239   0.294   0.345   0.326   0.182   0.285   0.251   0.191   0.312   0.185   0.294   0.313   0.230   0.186   0.194   0.214   0.286   0.161   0.220   0.246   0.213   0.239   0.298   0.220   0.354   0.206   0.170   0.221   0.257   0.322   0.382
   116.00    0.207   0.215   0.175   0.223   0.161   0.199   0.230   0.293   0.214   0.196   0.261   0.271   0.195   0.260   0.257   0.285   0.254   0.207   0.241   0.172   0.259   0.318   0.221   0.191   0.223   0.191   0.184   0.230   0.199   0.182   0.236   0.232   0.223   0.292   0.189   0.188   0.293   0.242   0.256   0.254   0.171   0.205   0.233   0.200   0.265   0.219   0.172   0.188   0.257   0.202   0.208   0.312   0.355   0.345   0.202   0.164   0.231   0.295   0.340
   111.00    0.226   0.210   0.222   0.203   0.182   0.183   0.256   0.320   0.179   0.265   0.250   0.179   0.268   0.173   0.237   0.240   0.210   0.211   0.189   0.192   0.212   0.254   0.229   0.157   0.280   0.204   0.266   0.248   0.290   0.197   0.207   0.226   0.239   0.216   0.273   0.302   0.260   0.292   0.210   0.254   0.164   0.212   0.180   0.245   0.272   0.235   0.269   0.277   0.343   0.368   0.374   0.261   0.302   0.314   0.183   0.178   0.211   0.276   0.296
   106.00    0.284   0.292   0.195   0.189   0.254   0.265   0.190   0.252   0.210   0.263   0.195   0.233   0.257   0.290   0.171   0.185   0.253   0.322   0.191   0.196   0.254   0.234   0.207   0.312   0.290   0.249   0.278   0.208   0.176   0.234   0.263   0.226   0.196   0.233   0.261   0.255   0.207   0.269   0.305   0.334   0.331   0.196   0.314   0.311   0.192   0.188   0.201   0.246   0.276   0.325   0.320   0.243   0.241   0.188   0.241   0.225   0.266   0.177   0.223
   101.00    0.239   0.224   0.201   0.252   0.256   0.343   0.174   0.219   0.293   0.234   0.238   0.217   0.197   0.222   0.205   0.252   0.165   0.255   0.240   0.201   0.220   0.164   0.233   0.253   0.356   0.223   0.312   0.223   0.261   0.183   0.246   0.230   0.199   0.246   0.241   0.325   0.220   0.257   0.206   0.211   0.235   0.297   0.350   0.197   0.194   0.234   0.361   0.264   0.227   0.289   0.260   0.280   0.219   0.290   0.205   0.311   0.292   0.191   0.166
    96.00    0.234   0.269   0.174   0.220   0.270   0.299   0.251   0.198   0.248   0.239   0.224   0.206   0.176   0.246   0.218   0.185   0.240   0.228   0.232   0.282   0.261   0.299   0.330   0.217   0.307   0.327   0.329   0.162   0.184   0.202   0.238   0.196   0.237   0.257   0.283   0.239   0.283   0.183   0.250   0.261   0.200   0.235   0.305   0.296   0.279   0.341   0.349   0.262   0.200   0.214   0.168   0.252   0.177   0.237   0.282   0.271   0.203   0.276   0.293
    91.00    0.203   0.227   0.218   0.253   0.250   0.243   0.186   0.265   0.226   0.253   0.230   0.194   0.212   0.222   0.188   0.208   0.223   0.216   0.206   0.260   0.269   0.288   0.272   0.198   0.173   0.193   0.229   0.213   0.211   0.184   0.186   0.230   0.248   0.277   0.220   0.218   0.231   0.252   0.216   0.217   0.193   0.259   0.310   0.349   0.378   0.355   0.330   0.200   0.276   0.271   0.171   0.273   0.318   0.195   0.169   0.189   0.197   0.223   0.208
    86.00    0.268   0.238   0.180   0.218   0.283   0.177   0.192   0.221   0.274   0.201   0.200   0.252   0.247   0.238   0.213   0.175   0.240   0.214   0.233   0.218   0.226   0.238   0.223   0.158   0.306   0.243   0.283   0.191   0.213   0.189   0.199   0.202   0.222   0.197   0.201   0.258   0.216   0.178   0.238   0.190   0.182   0.212   0.225   0.258   0.262   0.300   0.290   0.203   0.235   0.222   0.243   0.245   0.224   0.288   0.290   0.282   0.182   0.261   0.235
    81.00    0.245   0.199   0.232   0.276   0.156   0.205   0.296   0.226   0.168   0.187   0.255   0.306   0.188   0.215   0.200   0.247   0.270   0.208   0.192   0.192   0.215   0.229   0.174   0.308   0.358   0.195   0.262   0.321   0.217   0.248   0.251   0.191   0.234   0.212   0.187   0.219   0.249   0.161   0.270   0.280   0.237   0.248   0.168   0.215   0.189   0.213   0.199   0.174   0.325   0.235   0.255   0.182   0.258   0.216   0.292   0.190   0.253   0.243   0.211
    76.00    0.165   0.287   0.195   0.233   0.268   0.265   0.191   0.215   0.195   0.207   0.355   0.224   0.231   0.220   0.300   0.324   0.266   0.203   0.256   0.183   0.215   0.256   0.253   0.233   0.323   0.185   0.271   0.301   0.278   0.216   0.263   0.198   0.247   0.191   0.210   0.209   0.267   0.282   0.279   0.252   0.217   0.321   0.357   0.164   0.280   0.242   0.218   0.355   0.449   0.384   0.258   0.179   0.253   0.184   0.264   0.283   0.224   0.244   0.239
    71.00    0.306   0.322   0.193   0.212   0.190   0.283   0.285   0.197   0.242   0.316   0.293   0.309   0.256   0.319   0.341   0.292   0.240   0.305   0.338   0.263   0.205   0.278   0.230   0.211   0.288   0.274   0.268   0.299   0.177   0.212   0.211   0.184   0.248   0.217   0.214   0.260   0.195   0.228   0.196   0.203   0.252   0.302   0.283   0.203   0.239   0.254   0.229   0.365   0.378   0.412   0.247   0.217   0.215   0.216   0.269   0.193   0.217   0.182   0.218
    66.00    0.261   0.246   0.170   0.230   0.226   0.200   0.259   0.211   0.175   0.265   0.228   0.201   0.259   0.335   0.313   0.284   0.214   0.237   0.298   0.165   0.246   0.323   0.351   0.304   0.295   0.221   0.206   0.279   0.238   0.197   0.241   0.193   0.259   0.175   0.243   0.165   0.241   0.172   0.219   0.217   0.224   0.286   0.174   0.266   0.199   0.241   0.237   0.321   0.392   0.374   0.329   0.255   0.221   0.181   0.215   0.253   0.242   0.210   0.178
    61.00    0.235   0.236   0.194   0.245   0.287   0.218   0.222   0.215   0.314   0.307   0.170   0.217   0.237   0.274   0.227   0.224   0.212   0.238   0.245   0.274   0.172   0.226   0.286   0.312   0.173   0.223   0.187   0.202   0.183   0.178   0.211   0.167   0.194   0.172   0.236   0.243   0.212   0.254   0.202   0.214   0.194   0.198   0.224   0.207   0.243   0.173   0.196   0.209   0.246   0.244   0.279   0.291   0.250   0.254   0.299   0.230   0.214   0.316   0.216
    56.00    0.290   0.342   0.191   0.307   0.180   0.262   0.212   0.237   0.315   0.362   0.211   0.278   0.178   0.210   0.244   0.240   0.197   0.157   0.170   0.273   0.202   0.285   0.273   0.198   0.286   0.157   0.241   0.272   0.236   0.220   0.269   0.295   0.301   0.292   0.236   0.172   0.257   0.247   0.306   0.221   0.216   0.234   0.255   0.193   0.177   0.215   0.189   0.214   0.174   0.231   0.240   0.179   0.215   0.266   0.211   0.245   0.250   0.305   0.295
    51.00    0.244   0.323   0.342   0.280   0.225   0.216   0.177   0.201   0.208   0.311   0.217   0.258   0.202   0.226   0.206   0.203   0.282   0.260   0.285   0.250   0.262   0.286   0.237   0.186   0.210   0.241   0.181   0.251   0.255   0.189   0.220   0.257   0.209   0.210   0.199   0.197   0.222   0.253   0.275   0.179   0.212   0.215   0.240   0.170   0.187   0.241   0.250   0.167   0.158   0.174   0.162   0.176   0.218   0.192   0.245   0.293   0.231   0.244   0.284
    46.00    0.238   0.271   0.244   0.293   0.209   0.225   0.224   0.268   0.255   0.269   0.276   0.276   0.188   0.232   0.202   0.286   0.278   0.290   0.287   0.167   0.234   0.212   0.242   0.192   0.228   0.218   0.232   0.277   0.185   0.179   0.246   0.270   0.158   0.190   0.227   0.268   0.256   0.162   0.207   0.188   0.226   0.283   0.196   0.200   0.297   0.196   0.234   0.362   0.401   0.220   0.274   0.300   0.184   0.219   0.223   0.283   0.190   0.298   0.227
    41.00    0.162   0.191   0.281   0.238   0.200   0.215   0.218   0.225   0.222   0.187   0.234   0.216   0.240   0.216   0.243   0.278   0.191   0.237   0.233   0.181   0.251   0.190   0.226   0.183   0.226   0.197   0.215   0.217   0.221   0.240   0.237   0.285   0.197   0.273   0.176   0.190   0.225   0.204   0.220   0.253   0.196   0.217   0.241   0.211   0.243   0.227   0.285   0.385   0.351   0.352   0.233   0.181   0.221   0.181   0.185   0.207   0.225   0.282   0.268
    36.00    0.217   0.280   0.274   0.230   0.200   0.203   0.241   0.208   0.245   0.299   0.242   0.204   0.200   0.203   0.220   0.190   0.210   0.257   0.261   0.263   0.261   0.150   0.187   0.191   0.291   0.227   0.241   0.233   0.228   0.204   0.225   0.304   0.235   0.280   0.247   0.239   0.188   0.189   0.208   0.264   0.172   0.236   0.224   0.182   0.228   0.253   0.192   0.246   0.311   0.345   0.204   0.346   0.388   0.373   0.295   0.180   0.206   0.235   0.184
    31.00    0.176   0.197   0.275   0.173   0.225   0.226   0.268   0.236   0.202   0.298   0.217   0.202   0.204   0.266   0.271   0.302   0.326   0.260   0.200   0.253   0.311   0.250   0.187   0.319   0.311   0.296   0.250   0.193   0.191   0.201   0.222   0.209   0.271   0.242   0.172   0.245   0.164   0.203   0.187   0.282   0.302   0.259   0.240   0.238   0.219   0.181   0.194   0.198   0.228   0.272   0.186   0.325   0.380   0.292   0.202   0.265   0.197   0.186   0.275
    26.00    0.245   0.233   0.209   0.295   0.322   0.199   0.261   0.198   0.252   0.278   0.255   0.261   0.193   0.245   0.175   0.256   0.184   0.244   0.205   0.239   0.169   0.251   0.316   0.330   0.311   0.191   0.251   0.161   0.245   0.211   0.173   0.225   0.284   0.321   0.236   0.247   0.252   0.201   0.233   0.271   0.251   0.161   0.186   0.225   0.215   0.227   0.223   0.264   0.205   0.176   0.260   0.342   0.344   0.296   0.189   0.267   0.380   0.222   0.296
    21.00    0.214   0.193   0.188   0.237   0.287   0.193   0.248   0.303   0.370   0.216   0.187   0.286   0.317   0.237   0.198   0.315   0.258   0.178   0.279   0.190   0.181   0.211   0.262   0.275   0.297   0.187   0.177   0.199   0.297   0.256   0.308   0.314   0.267   0.238   0.280   0.200   0.231   0.250   0.167   0.193   0.231   0.253   0.256   0.169   0.302   0.276   0.251   0.205   0.225   0.221   0.234   0.316   0.245   0.289   0.184   0.278   0.325   0.294   0.269
    16.00    0.276   0.246   0.263   0.171   0.249   0.271   0.199   0.238   0.335   0.275   0.255   0.241   0.263   0.258   0.277   0.263   0.241   0.272   0.293   0.197   0.237   0.238   0.214   0.269   0.348   0.194   0.167   0.186   0.282   0.321   0.233   0.244   0.226   0.285   0.189   0.207   0.166   0.217   0.204   0.222   0.185   0.207   0.285   0.326   0.346   0.254   0.197   0.228   0.181   0.233   0.232   0.280   0.269   0.260   0.217   0.198   0.240   0.186   0.195
    11.00    0.243   0.281   0.210   0.225   0.224   0.185   0.267   0.235   0.309   0.325   0.270   0.340   0.224   0.311   0.164   0.192   0.230   0.233   0.189   0.206   0.229   0.206   0.289   0.362   0.349   0.250   0.202   0.309   0.301   0.218   0.315   0.220   0.196   0.234   0.292   0.175   0.223   0.228   0.190   0.272   0.298   0.256   0.319   0.206   0.326   0.252   0.225   0.271   0.344   0.405   0.341   0.249   0.242   0.189   0.177   0.186   0.186   0.206   0.199
     6.00    0.272   0.247   0.256   0.237   0.268   0.188   0.281   0.328   0.265   0.243   0.285   0.315   0.336   0.304   0.307   0.265   0.278   0.199   0.186   0.218   0.194   0.269   0.304   0.282   0.266   0.227   0.272   0.337   0.206   0.185   0.297   0.265   0.260   0.219   0.299   0.170   0.232   0.198   0.189   0.281   0.191   0.158   0.244   0.331   0.362   0.241   0.205   0.284   0.352   0.375   0.363   0.183   0.232   0.212   0.221   0.309   0.176   0.231   0.240
     1.00    0.250   0.229   0.191   0.265   0.307   0.330   0.218   0.294   0.214   0.267   0.223   0.248   0.246   0.291   0.318   0.353   0.163   0.244   0.203   0.186   0.196   0.244   0.258   0.178   0.251   0.285   0.220   0.243   0.296   0.220   0.282   0.301   0.210   0.235   0.248   0.312   0.187   0.250   0.180   0.202   0.260   0.319   0.238   0.225   0.296   0.332   0.213   0.211   0.286   0.265   0.300   0.188   0.266   0.170   0.245   0.297   0.211   0.204   0.260

   Height   Standard deviation at grid points for the v component:
   301.00    0.235   0.245   0.192   0.245   0.224   0.267   0.273   0.209   0.215   0.245   0.242   0.216   0.233   0.191   0.255   0.257   0.277   0.308   0.332   0.346   0.330   0.342   0.242   0.248   0.238   0.283   0.246   0.255   0.273   0.211   0.290   0.255   0.214   0.185   0.223   0.247   0.231   0.298   0.345   0.351   0.174   0.280   0.167   0.248   0.253   0.236   0.204   0.258   0.303   0.311   0.204   0.322   0.304   0.259   0.301   0.339   0.301   0.242   0.251
   296.00    0.232   0.215   0.227   0.202   0.188   0.225   0.236   0.203   0.223   0.181   0.204   0.233   0.224   0.257   0.234   0.208   0.234   0.243   0.320   0.306   0.305   0.270   0.246   0.229   0.258   0.269   0.296   0.243   0.277   0.245   0.310   0.253   0.231   0.261   0.292   0.295   0.231   0.230   0.263   0.309   0.254   0.267   0.328   0.232   0.223   0.207   0.261   0.318   0.282   0.285   0.262   0.335   0.319   0.203   0.212   0.296   0.233   0.292   0.328
   291.00    0.316   0.236   0.185   0.220   0.239   0.265   0.203   0.210   0.216   0.242   0.307   0.230   0.239   0.198   0.245   0.183   0.246   0.270   0.309   0.298   0.317   0.235   0.218   0.234   0.223   0.278   0.298   0.308   0.203   0.248   0.266   0.196   0.247   0.247   0.231   0.225   0.230   0.200   0.228   0.207   0.240   0.331   0.307   0.248   0.209   0.200   0.275   0.247   0.250   0.244   0.232   0.239   0.245   0.224   0.255   0.235   0.281   0.293   0.292
   286.00    0.308   0.317   0.303   0.216   0.223   0.227   0.188   0.242   0.188   0.250   0.290   0.207   0.219   0.214   0.203   0.257   0.301   0.258   0.285   0.325   0.361   0.335   0.288   0.332   0.334   0.208   0.294   0.322   0.197   0.257   0.251   0.176   0.262   0.271   0.245   0.205   0.243   0.199   0.240   0.233   0.261   0.245   0.308   0.167   0.181   0.236   0.226   0.238   0.229   0.205   0.245   0.207   0.215   0.240   0.270   0.315   0.287   0.264   0.217
   281.00    0.260   0.229   0.243   0.252   0.251   0.227   0.241   0.210   0.252   0.309   0.232   0.216   0.185   0.249   0.262   0.296   0.316   0.239   0.244   0.290   0.357   0.293   0.237   0.280   0.287   0.220   0.298   0.317   0.228   0.226   0.292   0.373   0.238   0.204   0.240   0.282   0.353   0.359   0.229   0.204   0.232   0.187   0.206   0.220   0.251   0.288   0.191   0.276   0.264   0.209   0.245   0.247   0.276   0.171   0.224   0.275   0.266   0.188   0.249
   276.00    0.277   0.240   0.217   0.233   0.239   0.263   0.296   0.176   0.223   0.239   0.215   0.242   0.245   0.247   0.234   0.252   0.232   0.279   0.317   0.212   0.331   0.278   0.272   0.244   0.236   0.227   0.303   0.238   0.182   0.207   0.295   0.350   0.283   0.261   0.259   0.234   0.282   0.335   0.207   0.187   0.231   0.203   0.256   0.313   0.320   0.312   0.240   0.243   0.196   0.281   0.277   0.217   0.266   0.224   0.173   0.270   0.336   0.302   0.228
   271.00    0.272   0.226   0.207   0.211   0.291   0.292   0.248   0.259   0.220   0.241   0.249   0.198   0.187   0.210   0.197   0.249   0.234   0.292   0.281   0.267   0.340   0.231   0.293   0.366   0.348   0.212   0.309   0.258   0.249   0.313   0.297   0.335   0.183   0.230   0.220   0.259   0.223   0.288   0.213   0.267   0.271   0.244   0.249   0.291   0.193   0.283   0.202   0.223   0.305   0.330   0.256   0.284   0.277   0.330   0.245   0.279   0.279   0.303   0.231
   266.00    0.276   0.321   0.226   0.183   0.269   0.242   0.251   0.301   0.218   0.274   0.195   0.214   0.287   0.266   0.222   0.264   0.260   0.229   0.287   0.187   0.315   0.247   0.233   0.276   0.309   0.232   0.282   0.216   0.285   0.327   0.224   0.299   0.240   0.295   0.331   0.224   0.253   0.272   0.187   0.282   0.215   0.210   0.194   0.252   0.215   0.312   0.306   0.265   0.304   0.304   0.312   0.240   0.195   0.239   0.262   0.304   0.210   0.253   0.237
   261.00    0.212   0.270   0.189   0.280   0.293   0.218   0.264   0.243   0.292   0.226   0.237   0.227   0.285   0.225   0.214   0.227   0.240   0.255   0.232   0.319   0.307   0.315   0.402   0.211   0.256   0.275   0.254   0.205   0.249   0.265   0.316   0.233   0.268   0.282   0.224   0.219   0.223   0.171   0.247   0.224   0.260   0.265   0.260   0.299   0.315   0.399   0.247   0.198   0.223   0.286   0.315   0.244   0.246   0.186   0.238   0.248   0.247   0.220   0.205
   256.00    0.239   0.248   0.260   0.275   0.271   0.222   0.267   0.273   0.274   0.226   0.228   0.242   0.242   0.206   0.268   0.212   0.254   0.279   0.222   0.300   0.288   0.228   0.323   0.386   0.278   0.224   0.278   0.222   0.186   0.292   0.300   0.288   0.215   0.254   0.252   0.245   0.275   0.274   0.238   0.253   0.270   0.269   0.233   0.228   0.331   0.356   0.344   0.180   0.241   0.219   0.261   0.208   0.223   0.250   0.194   0.193   0.200   0.236   0.278
   251.00    0.200   0.229   0.244   0.311   0.252   0.287   0.248   0.215   0.259   0.295   0.235   0.216   0.291   0.298   0.214   0.215   0.222   0.248   0.246   0.304   0.209   0.237   0.290   0.372   0.276   0.358   0.385   0.241   0.344   0.342   0.242   0.260   0.243   0.220   0.206   0.224   0.208   0.297   0.309   0.336   0.168   0.206   0.217   0.279   0.254   0.305   0.288   0.267   0.247   0.204   0.207   0.271   0.274   0.244   0.303   0.278   0.238   0.249   0.252
   246.00    0.243   0.238   0.210   0.220   0.282   0.316   0.226   0.240   0.246   0.285   0.272   0.257   0.264   0.262   0.245   0.195   0.211   0.248   0.216   0.236   0.304   0.331   0.272   0.310   0.291   0.357   0.379   0.372   0.323   0.305   0.287   0.260   0.287   0.237   0.225   0.226   0.223   0.336   0.265   0.227   0.267   0.174   0.256   0.335   0.289   0.313   0.200   0.239   0.217   0.250   0.211   0.234   0.248   0.254   0.234   0.225   0.190   0.240   0.192
   241.00    0.308   0.303   0.224   0.214   0.266   0.228   0.266   0.185   0.270   0.223   0.288   0.317   0.195   0.196   0.284   0.342   0.361   0.267   0.220   0.218   0.302   0.332   0.206   0.222   0.308   0.320   0.281   0.300   0.230   0.249   0.281   0.210   0.265   0.214   0.266   0.238   0.223   0.324   0.371   0.241   0.247   0.249   0.265   0.323   0.228   0.267   0.274   0.206   0.225   0.194   0.244   0.254   0.244   0.212   0.214   0.204   0.195   0.232   0.258
   236.00    0.295   0.229   0.282   0.276   0.254   0.243   0.185   0.260   0.240   0.243   0.251   0.266   0.252   0.271   0.259   0.284   0.267   0.306   0.235   0.200   0.262   0.305   0.235   0.210   0.259   0.307   0.176   0.236   0.230   0.233   0.237   0.260   0.223   0.198   0.199   0.268   0.259   0.334   0.333   0.248   0.261   0.206   0.221   0.282   0.170   0.234   0.212   0.236   0.271   0.228   0.270   0.294   0.306   0.219   0.253   0.263   0.209   0.216   0.254
   231.00    0.288   0.196   0.226   0.260   0.244   0.202   0.197   0.245   0.344   0.288   0.241   0.222   0.300   0.214   0.252   0.283   0.261   0.248   0.219   0.232   0.239   0.276   0.198   0.196   0.272   0.285   0.251   0.210   0.205   0.258   0.212   0.233   0.208   0.229   0.230   0.248   0.283   0.301   0.293   0.254   0.275   0.202   0.232   0.191   0.250   0.310   0.205   0.223   0.239   0.251   0.320   0.345   0.342   0.194   0.237   0.223   0.212   0.253   0.194
   226.00    0.275   0.212   0.231   0.314   0.313   0.300   0.237   0.237   0.287   0.326   0.247   0.214   0.262   0.299   0.197   0.193   0.224   0.260   0.186   0.248   0.220   0.253   0.236   0.231   0.223   0.220   0.222   0.286   0.213   0.193   0.245   0.245   0.247   0.242   0.207   0.190   0.242   0.220   0.261   0.225   0.313   0.310   0.208   0.247   0.326   0.262   0.187   0.260   0.213   0.267   0.330   0.293   0.277   0.293   0.208   0.257   0.200   0.206   0.220
   221.00    0.273   0.245   0.260   0.221   0.251   0.263   0.212   0.227   0.241   0.318   0.293   0.246   0.296   0.215   0.212   0.262   0.270   0.197   0.257   0.213   0.229   0.325   0.197   0.214   0.233   0.224   0.291   0.258   0.215   0.200   0.229   0.270   0.259   0.232   0.272   0.223   0.260   0.226   0.228   0.267   0.284   0.319   0.271   0.275   0.316   0.258   0.226   0.285   0.286   0.257   0.277   0.319   0.284   0.243   0.211   0.290   0.280   0.256   0.198
   216.00    0.328   0.224   0.292   0.313   0.312   0.266   0.212   0.208   0.200   0.237   0.322   0.324   0.350   0.204   0.265   0.318   0.237   0.230   0.221   0.200   0.267   0.279   0.282   0.276   0.232   0.198   0.235   0.323   0.222   0.236   0.218   0.180   0.252   0.287   0.288   0.233   0.258   0.174   0.227   0.194   0.259   0.290   0.272   0.231   0.218   0.232   0.256   0.282   0.248   0.238   0.282   0.302   0.303   0.180   0.241   0.285   0.252   0.296   0.194
   211.00    0.315   0.268   0.260   0.259   0.232   0.203   0.242   0.287   0.213   0.248   0.245   0.294   0.254   0.241   0.215   0.253   0.312   0.336   0.226   0.207   0.245   0.278   0.247   0.257   0.230   0.324   0.319   0.300   0.270   0.216   0.222   0.279   0.227   0.239   0.290   0.246   0.246   0.260   0.228   0.237   0.246   0.279   0.288   0.243   0.235   0.232   0.285   0.268   0.200   0.240   0.218   0.244   0.222   0.238   0.225   0.194   0.200   0.230   0.259
   206.00    0.291   0.221   0.245   0.202   0.195   0.264   0.307   0.238   0.225   0.187   0.213   0.291   0.224   0.202   0.266   0.233   0.210   0.298   0.312   0.281   0.252   0.244   0.249   0.246   0.203   0.285   0.195   0.291   0.243   0.206   0.205   0.254   0.222   0.223   0.297   0.347   0.179   0.213   0.239   0.286   0.324   0.297   0.256   0.277   0.259   0.308   0.302   0.194   0.216   0.209   0.287   0.213   0.213   0.217   0.186   0.234   0.280   0.265   0.188
   201.00    0.278   0.225   0.189   0.251   0.260   0.305   0.233   0.262   0.218   0.247   0.219   0.304   0.329   0.285   0.286   0.331   0.224   0.222   0.279   0.251   0.243   0.238   0.227   0.257   0.217   0.230   0.242   0.257   0.280   0.253   0.270   0.308   0.206   0.216   0.254   0.271   0.259   0.243   0.259   0.299   0.262   0.215   0.233   0.248   0.248   0.282   0.206   0.270   0.289   0.314   0.282   0.255   0.258   0.268   0.232   0.238   0.317   0.326   0.288
   196.00    0.248   0.271   0.250   0.233   0.296   0.222   0.279   0.222   0.285   0.305   0.313   0.295   0.266   0.240   0.188   0.263   0.265   0.237   0.268   0.223   0.251   0.194   0.274   0.189   0.320   0.339   0.323   0.195   0.222   0.213   0.282   0.212   0.213   0.227   0.226   0.191   0.222   0.262   0.263   0.219   0.228   0.206   0.250   0.192   0.280   0.199   0.260   0.212   0.216   0.265   0.295   0.376   0.382   0.271   0.242   0.225   0.239   0.303   0.257
   191.00    0.228   0.222   0.204   0.250   0.312   0.275   0.299   0.177   0.214   0.256   0.248   0.210   0.210   0.271   0.194   0.273   0.320   0.248   0.203   0.216   0.201   0.243   0.275   0.322   0.304   0.286   0.198   0.271   0.190   0.209   0.261   0.194   0.258   0.203   0.196   0.216   0.211   0.220   0.212   0.225   0.232   0.251   0.197   0.220   0.315   0.219   0.245   0.334   0.272   0.276   0.263   0.265   0.332   0.297   0.177   0.203   0.267   0.262   0.307
   186.00    0.295   0.301   0.187   0.275   0.296   0.223   0.208   0.219   0.197   0.226   0.239   0.300   0.205   0.263   0.233   0.245   0.237   0.298   0.299   0.198   0.239   0.194   0.209   0.234   0.238   0.261   0.204   0.280   0.249   0.268   0.225   0.241   0.208   0.241   0.260   0.198   0.242   0.217   0.226   0.231   0.239   0.242   0.206   0.262   0.273   0.327   0.378   0.360   0.414   0.381   0.287   0.311   0.267   0.286   0.242   0.211   0.229   0.279   0.307
   181.00    0.329   0.219   0.226   0.262   0.211   0.262   0.216   0.217   0.247   0.267   0.259   0.234   0.323   0.331   0.231   0.313   0.246   0.271   0.252   0.203   0.211   0.236   0.278   0.261   0.248   0.189   0.214   0.249   0.253   0.259   0.184   0.217   0.258   0.230   0.252   0.232   0.263   0.207   0.204   0.250   0.238   0.273   0.245   0.301   0.182   0.313   0.246   0.363   0.350   0.361   0.391   0.244   0.216   0.199   0.243   0.173   0.205   0.209   0.253
   176.00    0.284   0.239   0.232   0.202   0.240   0.225   0.261   0.286   0.241   0.208   0.207   0.266   0.285   0.252   0.293   0.264   0.206   0.207   0.238   0.331   0.336   0.246   0.231   0.237   0.239   0.247   0.263   0.229   0.222   0.235   0.255   0.222   0.317   0.259   0.292   0.219   0.229   0.220   0.253   0.247   0.270   0.213   0.267   0.188   0.236   0.291   0.322   0.306   0.288   0.348   0.404   0.238   0.195   0.271   0.229   0.253   0.202   0.239   0.272
   171.00    0.267   0.265   0.200   0.255   0.322   0.195   0.198   0.210   0.241   0.237   0.235   0.274   0.258   0.301   0.254   0.210   0.274   0.198   0.205   0.267   0.278   0.247   0.177   0.246   0.198   0.265   0.318   0.198   0.205   0.234   0.232   0.234   0.341   0.337   0.301   0.212   0.194   0.243   0.307   0.334   0.296   0.305   0.207   0.296   0.296   0.235   0.324   0.208   0.277   0.300   0.300   0.327   0.241   0.251   0.281   0.198   0.192   0.282   0.213
   166.00    0.281   0.216   0.255   0.234   0.281   0.338   0.227   0.274   0.247   0.331   0.396   0.256   0.272   0.300   0.245   0.244   0.220   0.220   0.190   0.262   0.235   0.249   0.295   0.250   0.271   0.300   0.239   0.203   0.301   0.301   0.225   0.276   0.307   0.263   0.272   0.214   0.231   0.213   0.206   0.244   0.253   0.238   0.255   0.293   0.211   0.312   0.401   0.416   0.233   0.227   0.247   0.285   0.197   0.191   0.237   0.265   0.248   0.277   0.269
   161.00    0.308   0.223   0.208   0.237   0.283   0.291   0.325   0.337   0.323   0.345   0.334   0.332   0.260   0.217   0.195   0.300   0.206   0.236   0.268   0.265   0.195   0.233   0.229   0.281   0.249   0.261   0.228   0.238   0.284   0.267   0.265   0.236   0.229   0.225   0.211   0.298   0.189   0.235   0.247   0.187   0.224   0.228   0.275   0.274   0.246   0.408   0.334   0.360   0.286   0.318   0.200   0.242   0.194   0.206   0.263   0.171   0.199   0.255   0.211
   156.00    0.293   0.213   0.250   0.251   0.246   0.211   0.307   0.355   0.261   0.251   0.302   0.233   0.257   0.221   0.195   0.298   0.312   0.238   0.268   0.284   0.186   0.213   0.190   0.251   0.227   0.216   0.249   0.265   0.217   0.199   0.210   0.187   0.267   0.305   0.334   0.259   0.222   0.228   0.280   0.184   0.238   0.208   0.245   0.367   0.443   0.470   0.362   0.351   0.253   0.256   0.317   0.235   0.204   0.313   0.303   0.262   0.264   0.209   0.307
   151.00    0.277   0.211   0.191   0.219   0.211   0.220   0.286   0.328   0.336   0.254   0.296   0.291   0.276   0.257   0.235   0.244   0.257   0.207   0.262   0.207   0.269   0.242   0.220   0.298   0.209   0.290   0.326   0.244   0.253   0.314   0.374   0.356   0.261   0.240   0.259   0.233   0.220   0.240   0.295   0.231   0.216   0.279   0.233   0.315   0.373   0.383   0.355   0.193   0.206   0.220   0.213   0.215   0.256   0.317   0.247   0.212   0.262   0.242   0.271
   146.00    0.233   0.227   0.260   0.227   0.295   0.292   0.312   0.343   0.268   0.221   0.279   0.270   0.227   0.237   0.257   0.223   0.268   0.232   0.216   0.254   0.224   0.262   0.267   0.239   0.275   0.231   0.264   0.220   0.293   0.350   0.366   0.357   0.258   0.178   0.231   0.203   0.241   0.248   0.277   0.364   0.226   0.304   0.287   0.291   0.267   0.303   0.296   0.243   0.250   0.202   0.223   0.226   0.261   0.287   0.346   0.347   0.356   0.297   0.268
   141.00    0.293   0.229   0.303   0.226   0.250   0.277   0.311   0.309   0.305   0.205   0.290   0.230   0.191   0.199   0.288   0.236   0.255   0.203   0.230   0.300   0.243   0.257   0.231   0.222   0.289   0.204   0.260   0.269   0.201   0.333   0.267   0.268   0.252   0.253   0.270   0.221   0.216   0.210   0.271   0.283   0.316   0.216   0.247   0.265   0.205   0.205   0.214   0.226   0.236   0.236   0.277   0.225   0.255   0.205   0.261   0.234   0.302   0.333   0.207
   136.00    0.200   0.239   0.265   0.263   0.277   0.224   0.209   0.237   0.321   0.367   0.295   0.255   0.221   0.212   0.264   0.285   0.274   0.230   0.193   0.256   0.330   0.272   0.246   0.232   0.280   0.225   0.218   0.244   0.215   0.304   0.389   0.210   0.236   0.242   0.246   0.214   0.222   0.209   0.228   0.255   0.256   0.237   0.224   0.239   0.223   0.286   0.230   0.222   0.253   0.263   0.245   0.210   0.243   0.212   0.232   0.253   0.296   0.321   0.271
   131.00    0.271   0.186   0.181   0.227   0.207   0.246   0.201   0.264   0.271   0.310   0.241   0.309   0.307   0.241   0.248   0.237   0.243   0.232   0.216   0.280   0.355   0.186   0.192   0.207   0.230   0.196   0.236   0.242   0.217   0.284   0.299   0.318   0.194   0.291   0.242   0.205   0.316   0.213   0.299   0.277   0.208   0.276   0.241   0.309   0.294   0.260   0.259   0.289   0.263   0.249   0.222   0.264   0.238   0.256   0.220   0.272   0.262   0.289   0.349
   126.00    0.277   0.224   0.238   0.256   0.230   0.335   0.235   0.226   0.199   0.226   0.205   0.256   0.257   0.248   0.198   0.227   0.219   0.274   0.255   0.200   0.302   0.327   0.224   0.223   0.206   0.221   0.273   0.356   0.334   0.315   0.212   0.229   0.255   0.260   0.300   0.311   0.341   0.293   0.327   0.292   0.187   0.205   0.209   0.217   0.243   0.188   0.238   0.206   0.248   0.255   0.226   0.184   0.230   0.223   0.213   0.246   0.290   0.288   0.340
   121.00    0.247   0.244   0.261   0.299   0.326   0.371   0.249   0.255   0.207   0.206   0.245   0.246   0.213   0.217   0.248   0.237   0.214   0.268   0.250   0.270   0.285   0.267   0.286   0.236   0.218   0.285   0.232   0.256   0.257   0.231   0.282   0.337   0.189   0.222   0.247   0.284   0.278   0.230   0.332   0.249   0.197   0.215   0.203   0.275   0.255   0.247   0.318   0.158   0.275   0.280   0.193   0.284   0.283   0.256   0.212   0.282   0.219   0.252   0.267
   116.00    0.264   0.215   0.273   0.337   0.311   0.331   0.310   0.253   0.233   0.207   0.257   0.241   0.188   0.273   0.294   0.294   0.305   0.289   0.250   0.322   0.220   0.229   0.252   0.234   0.283   0.238   0.264   0.199   0.250   0.182   0.252   0.300   0.261   0.293   0.200   0.208   0.262   0.346   0.346   0.302   0.235   0.216   0.232   0.263   0.234   0.174   0.274   0.214   0.253   0.224   0.252   0.291   0.276   0.237   0.285   0.321   0.197   0.241   0.247
   111.00    0.241   0.264   0.195   0.300   0.227   0.236   0.272   0.274   0.300   0.209   0.209   0.188   0.243   0.238   0.204   0.233   0.235   0.188   0.230   0.248   0.230   0.238   0.251   0.219   0.236   0.186   0.254   0.262   0.191   0.259   0.232   0.278   0.344   0.346   0.294   0.184   0.229   0.298   0.334   0.328   0.185   0.270   0.197   0.244   0.263   0.228   0.266   0.302   0.221   0.204   0.226   0.273   0.289   0.174   0.245   0.242   0.287   0.231   0.237
   106.00    0.233   0.200   0.262   0.292   0.220   0.250   0.243   0.225   0.269   0.233   0.235   0.197   0.213   0.231   0.272   0.294   0.291   0.269   0.268   0.202   0.228   0.229   0.203   0.216   0.237   0.229   0.185   0.190   0.245   0.244   0.265   0.369   0.360   0.331   0.310   0.256   0.288   0.296   0.301   0.247   0.248   0.292   0.287   0.269   0.186   0.228   0.253   0.211   0.250   0.268   0.209   0.277   0.206   0.252   0.236   0.199   0.205   0.251   0.196
   101.00    0.228   0.214   0.224   0.249   0.195   0.247   0.227   0.261   0.242   0.180   0.236   0.259   0.217   0.242   0.248   0.198   0.233   0.320   0.279   0.325   0.188   0.245   0.278   0.237   0.231   0.203   0.230   0.252   0.232   0.229   0.282   0.326   0.352   0.229   0.287   0.198   0.201   0.218   0.232   0.254   0.307   0.296   0.334   0.387   0.214   0.222   0.226   0.289   0.329   0.321   0.231   0.278   0.303   0.252   0.185   0.219   0.254   0.257   0.307
    96.00    0.202   0.180   0.293   0.242   0.309   0.227   0.224   0.238   0.172   0.304   0.228   0.224   0.230   0.248   0.214   0.248   0.289   0.341   0.279   0.287   0.353   0.180   0.229   0.219   0.209   0.269   0.211   0.253   0.231   0.245   0.231   0.317   0.248   0.216   0.250   0.228   0.230   0.196   0.241   0.243   0.322   0.328   0.285   0.333   0.328   0.245   0.250   0.229   0.338   0.279   0.211   0.208   0.273   0.288   0.185   0.227   0.238   0.274   0.294
    91.00    0.298   0.224   0.317   0.374   0.365   0.241   0.199   0.205   0.278   0.324   0.244   0.291   0.222   0.269   0.219   0.204   0.239   0.257   0.241   0.296   0.313   0.222   0.250   0.276   0.248   0.263   0.224   0.209   0.228   0.195   0.283   0.322   0.210   0.234   0.217   0.229   0.250   0.267   0.226   0.222   0.272   0.219   0.308   0.341   0.351   0.212   0.222   0.265   0.367   0.397   0.262   0.302   0.176   0.285   0.282   0.288   0.176   0.311   0.188
    86.00    0.265   0.224   0.265   0.303   0.291   0.301   0.241   0.179   0.216   0.274   0.310   0.258   0.199   0.240   0.224   0.225   0.196   0.226   0.242   0.278   0.266   0.240   0.247   0.251   0.189   0.265   0.209   0.215   0.202   0.219   0.210   0.260   0.238   0.251   0.236   0.213   0.206   0.243   0.246   0.182   0.214   0.288   0.273   0.293   0.328   0.256   0.285   0.239   0.362   0.385   0.356   0.262   0.279   0.293   0.212   0.247   0.238   0.282   0.319
    81.00    0.232   0.209   0.218   0.277   0.239   0.281   0.246   0.293   0.327   0.216   0.230   0.256   0.189   0.252   0.234   0.257   0.273   0.177   0.278   0.285   0.269   0.311   0.211   0.217   0.211   0.245   0.213   0.245   0.217   0.198   0.227   0.238   0.242   0.224   0.237   0.334   0.259   0.208   0.263   0.294   0.323   0.331   0.353   0.178   0.264   0.322   0.225   0.311   0.357   0.284   0.340   0.408   0.209   0.295   0.297   0.255   0.221   0.206   0.270
    76.00    0.222   0.218   0.213   0.236   0.242   0.211   0.271   0.348   0.257   0.266   0.309   0.355   0.220   0.270   0.290   0.173   0.246   0.226   0.255   0.220   0.274   0.257   0.336   0.211   0.163   0.216   0.239   0.199   0.212   0.285   0.277   0.287   0.289   0.188   0.278   0.258   0.260   0.238   0.254   0.327   0.279   0.286   0.295   0.241   0.258   0.258   0.271   0.298   0.306   0.284   0.333   0.369   0.346   0.207   0.246   0.367   0.391   0.236   0.308
    71.00    0.311   0.263   0.197   0.227   0.203   0.228   0.259   0.329   0.239   0.282   0.199   0.287   0.308   0.230   0.259   0.228   0.257   0.311   0.313   0.240   0.281   0.359   0.266   0.215   0.303   0.321   0.322   0.202   0.263   0.269   0.278   0.355   0.296   0.263   0.243   0.243   0.266   0.223   0.232   0.257   0.224   0.202   0.221   0.243   0.270   0.255   0.219   0.238   0.290   0.346   0.370   0.364   0.213   0.298   0.310   0.299   0.318   0.318   0.313
    66.00    0.351   0.302   0.282   0.231   0.315   0.207   0.275   0.288   0.262   0.282   0.204   0.302   0.253   0.251   0.294   0.282   0.214   0.292   0.234   0.235   0.265   0.375   0.322   0.308   0.256   0.208   0.244   0.255   0.298   0.221   0.237   0.279   0.243   0.249   0.207   0.204   0.210   0.216   0.242   0.240   0.238   0.269   0.258   0.310   0.248   0.176   0.238   0.263   0.207   0.240   0.266   0.311   0.254   0.254   0.205   0.235   0.286   0.332   0.248
    61.00    0.315   0.334   0.348   0.254   0.354   0.301   0.304   0.247   0.220   0.276   0.278   0.317   0.315   0.325   0.313   0.281   0.219   0.286   0.253   0.283   0.248   0.304   0.324   0.270   0.212   0.317   0.237   0.209   0.261   0.334   0.195   0.241   0.195   0.203   0.239   0.273   0.200   0.308   0.278   0.211   0.207   0.210   0.238   0.243   0.268   0.263   0.248   0.246   0.201   0.230   0.221   0.254   0.170   0.281   0.279   0.294   0.284   0.317   0.320
    56.00    0.240   0.306   0.314   0.270   0.306   0.300   0.289   0.275   0.213   0.255   0.260   0.258   0.249   0.296   0.265   0.229   0.236   0.250   0.279   0.326   0.263   0.234   0.247   0.327   0.245   0.268   0.251   0.237   0.247   0.272   0.294   0.231   0.233   0.278   0.258   0.260   0.296   0.289   0.287   0.322   0.281   0.231   0.185   0.271   0.289   0.179   0.216   0.254   0.239   0.200   0.192   0.251   0.268   0.320   0.217   0.253   0.233   0.299   0.273
    51.00    0.219   0.299   0.368   0.235   0.254   0.266   0.283   0.234   0.285   0.230   0.270   0.336   0.197   0.245   0.245   0.220   0.242   0.247   0.252   0.329   0.360   0.207   0.197   0.270   0.270   0.216   0.193   0.216   0.270   0.281   0.274   0.201   0.218   0.235   0.229   0.235   0.242   0.286   0.194   0.249   0.276   0.231   0.206   0.190   0.318   0.217   0.258   0.219   0.204   0.213   0.285   0.315   0.197   0.275   0.328   0.335   0.334   0.356   0.231
    46.00    0.205   0.252   0.271   0.310   0.296   0.291   0.251   0.272   0.255   0.227   0.255   0.322   0.318   0.198   0.214   0.220   0.213   0.208   0.226   0.267   0.275   0.278   0.263   0.220   0.242   0.222   0.271   0.210   0.272   0.246   0.310   0.219   0.290   0.206   0.213   0.223   0.241   0.263   0.197   0.227   0.261   0.220   0.253   0.291   0.302   0.301   0.256   0.219   0.250   0.243   0.222   0.312   0.241   0.229   0.262   0.264   0.311   0.257   0.299
    41.00    0.278   0.200   0.202   0.268   0.195   0.242   0.254   0.200   0.190   0.293   0.239   0.246   0.248   0.278   0.231   0.172   0.242   0.184   0.253   0.268   0.207   0.188   0.284   0.241   0.255   0.300   0.271   0.261   0.283   0.294   0.339   0.301   0.287   0.251   0.257   0.259   0.232   0.207   0.219   0.221   0.230   0.190   0.207   0.245   0.269   0.285   0.270   0.202   0.239   0.191   0.220   0.277   0.324   0.281   0.273   0.250   0.270   0.279   0.208
    36.00    0.352   0.265   0.195   0.207   0.256   0.212   0.221   0.267   0.304   0.397   0.251   0.229   0.235   0.291   0.270   0.233   0.267   0.264   0.200   0.215   0.217   0.267   0.331   0.226   0.250   0.258   0.182   0.283   0.241   0.320   0.235   0.241   0.285   0.185   0.216   0.244   0.248   0.228   0.220   0.255   0.206   0.265   0.278   0.266   0.245   0.226   0.246   0.201   0.219   0.221   0.187   0.264   0.313   0.258   0.195   0.256   0.237   0.214   0.215
    31.00    0.330   0.384   0.344   0.313   0.207   0.237   0.213   0.175   0.305   0.363   0.401   0.379   0.301   0.270   0.301   0.276   0.300   0.275   0.250   0.260   0.232   0.215   0.301   0.269   0.232   0.212   0.217   0.214   0.308   0.345   0.238   0.250   0.284   0.214   0.200   0.236   0.206   0.235   0.205   0.260   0.217   0.245   0.206   0.224   0.226   0.296   0.242   0.272   0.208   0.205   0.239   0.248   0.256   0.259   0.246   0.193   0.208   0.236   0.200
    26.00    0.329   0.345   0.300   0.201   0.225   0.230   0.243   0.324   0.297   0.311   0.326   0.307   0.323   0.194   0.270   0.254   0.244   0.212   0.289   0.327   0.204   0.243   0.212   0.239   0.232   0.219   0.171   0.234   0.323   0.247   0.350   0.378   0.281   0.308   0.286   0.273   0.214   0.220   0.214   0.255   0.240   0.211   0.253   0.257   0.249   0.213   0.236   0.226   0.234   0.275   0.284   0.260   0.225   0.275   0.225   0.303   0.218   0.219   0.257
    21.00    0.311   0.305   0.255   0.287   0.178   0.223   0.299   0.345   0.332   0.361   0.244   0.328   0.367   0.246   0.291   0.222   0.219   0.290   0.355   0.335   0.199   0.245   0.236   0.209   0.236   0.229   0.239   0.239   0.359   0.415   0.413   0.318   0.306   0.202   0.289   0.354   0.284   0.189   0.212   0.271   0.210   0.271   0.264   0.198   0.241   0.199   0.247   0.232   0.251   0.219   0.245   0.193   0.225   0.213   0.268   0.236   0.249   0.348   0.238
    16.00    0.273   0.259   0.218   0.272   0.205   0.249   0.296   0.306   0.204   0.315   0.244   0.283   0.351   0.372   0.368   0.242   0.246   0.300   0.286   0.279   0.210   0.246   0.194   0.246   0.337   0.224   0.291   0.221   0.354   0.403   0.317   0.268   0.177   0.276   0.214   0.291   0.260   0.241   0.216   0.240   0.260   0.248   0.215   0.225   0.256   0.244   0.198   0.242   0.241   0.253   0.261   0.292   0.185   0.218   0.250   0.250   0.282   0.318   0.304
    11.00    0.248   0.238   0.218   0.238   0.175   0.184   0.233   0.255   0.277   0.257   0.327   0.327   0.339   0.254   0.313   0.204   0.198   0.248   0.210   0.239   0.185   0.203   0.204   0.226   0.282   0.318   0.235   0.259   0.301   0.293   0.333   0.263   0.194   0.303   0.221   0.329   0.211   0.266   0.211   0.207   0.245   0.184   0.274   0.291   0.222   0.234   0.282   0.225   0.276   0.211   0.228   0.289   0.263   0.186   0.238   0.244   0.290   0.223   0.291
     6.00    0.194   0.283   0.216   0.239   0.264   0.248   0.302   0.326   0.201   0.287   0.222   0.282   0.198   0.294   0.319   0.199   0.211   0.193   0.187   0.219   0.241   0.178   0.212   0.234   0.259   0.249   0.247   0.216   0.222   0.294   0.226   0.257   0.209   0.293   0.272   0.308   0.296   0.285   0.179   0.213   0.253   0.258   0.323   0.314   0.246   0.201   0.246   0.272   0.300   0.229   0.282   0.279   0.257   0.234   0.262   0.265   0.280   0.241   0.236
     1.00    0.258   0.258   0.252   0.290   0.226   0.238   0.227   0.286   0.302   0.212   0.286   0.301   0.292   0.237   0.261   0.263   0.269   0.298   0.237   0.280   0.226   0.266   0.226   0.214   0.277   0.236   0.265   0.245   0.198   0.249   0.288   0.192   0.268   0.308   0.178   0.230   0.252   0.248   0.229   0.246   0.227   0.263   0.242   0.297   0.264   0.201   0.230   0.268   0.216   0.244   0.302   0.245   0.267   0.257   0.263   0.281   0.266   0.187   0.253

   Height   Standard deviation at grid points for the w component:
   301.00    0.238   0.244   0.233   0.250   0.194   0.214   0.205   0.238   0.277   0.250   0.170   0.219   0.261   0.183   0.213   0.213   0.224   0.192   0.217   0.162   0.241   0.240   0.234   0.247   0.196   0.238   0.245   0.249   0.210   0.223   0.210   0.207   0.235   0.232   0.285   0.246   0.282   0.371   0.363   0.221   0.248   0.225   0.242   0.175   0.236   0.230   0.218   0.207   0.229   0.178   0.208   0.234   0.231   0.238   0.279   0.335   0.314   0.194   0.199
   296.00    0.186   0.214   0.215   0.176   0.214   0.189   0.217   0.228   0.254   0.166   0.235   0.249   0.200   0.214   0.228   0.216   0.204   0.235   0.281   0.243   0.249   0.248   0.210   0.192   0.220   0.215   0.297   0.296   0.184   0.201   0.224   0.183   0.225   0.196   0.241   0.223   0.280   0.345   0.344   0.222   0.300   0.182   0.201   0.178   0.218   0.177   0.249   0.174   0.188   0.247   0.259   0.237   0.243   0.181   0.212   0.304   0.184   0.233   0.264
   291.00    0.199   0.252   0.197   0.248   0.208   0.185   0.200   0.215   0.215   0.190   0.212   0.192   0.173   0.204   0.227   0.230   0.175   0.227   0.224   0.185   0.188   0.185   0.168   0.262   0.159   0.183   0.246   0.261   0.193   0.188   0.197   0.243   0.181   0.181   0.174   0.179   0.248   0.297   0.325   0.290   0.313   0.265   0.185   0.209   0.236   0.238   0.249   0.208   0.228   0.183   0.219   0.263   0.327   0.286   0.202   0.276   0.235   0.222   0.230
   286.00    0.191   0.252   0.192   0.235   0.177   0.206   0.183   0.198   0.231   0.212   0.236   0.202   0.195   0.193   0.232   0.327   0.217   0.178   0.236   0.207   0.211   0.274   0.313   0.306   0.209   0.222   0.287   0.262   0.203   0.183   0.189   0.256   0.257   0.187   0.270   0.255   0.249   0.262   0.277   0.211   0.214   0.211   0.201   0.194   0.243   0.219   0.268   0.229   0.193   0.166   0.229   0.241   0.227   0.322   0.213   0.292   0.282   0.283   0.190
   281.00    0.207   0.276   0.264   0.205   0.257   0.197   0.182   0.215   0.184   0.194   0.228   0.155   0.218   0.187   0.220   0.297   0.272   0.256   0.290   0.207   0.227   0.194   0.252   0.245   0.214   0.190   0.258   0.253   0.163   0.255   0.228   0.248   0.256   0.230   0.234   0.312   0.215   0.309   0.235   0.191   0.184   0.209   0.200   0.212   0.278   0.204   0.237   0.284   0.217   0.303   0.221   0.183   0.170   0.253   0.317   0.320   0.171   0.247   0.317
   276.00    0.232   0.240   0.234   0.194   0.209   0.202   0.182   0.192   0.238   0.206   0.251   0.300   0.192   0.217   0.205   0.263   0.181   0.248   0.267   0.220   0.180   0.217   0.204   0.222   0.184   0.222   0.202   0.218   0.177   0.267   0.181   0.185   0.184   0.202   0.260   0.269   0.225   0.245   0.283   0.293   0.188   0.220   0.191   0.238   0.254   0.327   0.216   0.263   0.263   0.246   0.255   0.208   0.215   0.241   0.289   0.227   0.222   0.208   0.308
   271.00    0.233   0.168   0.200   0.192   0.164   0.232   0.222   0.213   0.260   0.199   0.213   0.278   0.259   0.200   0.191   0.229   0.244   0.265   0.210   0.247   0.248   0.272   0.229   0.210   0.190   0.225   0.204   0.209   0.238   0.250   0.257   0.278   0.196   0.214   0.197   0.270   0.183   0.193   0.232   0.224   0.254   0.166   0.201   0.234   0.199   0.250   0.306   0.345   0.316   0.239   0.206   0.182   0.196   0.208   0.256   0.189   0.191   0.205   0.259
   266.00    0.190   0.239   0.213   0.239   0.199   0.237   0.242   0.267   0.241   0.186   0.234   0.240   0.201   0.223   0.199   0.213   0.226   0.191   0.169   0.230   0.199   0.248   0.276   0.269   0.187   0.174   0.194   0.173   0.221   0.208   0.212   0.227   0.202   0.179   0.234   0.277   0.208   0.206   0.185   0.201   0.213   0.194   0.245   0.211   0.263   0.264   0.244   0.260   0.263   0.186   0.206   0.208   0.197   0.229   0.235   0.280   0.207   0.163   0.197
   261.00    0.206   0.202   0.234   0.256   0.242   0.223   0.262   0.193   0.229   0.179   0.187   0.175   0.244   0.291   0.189   0.256   0.247   0.209   0.247   0.239   0.171   0.238   0.259   0.260   0.182   0.221   0.265   0.182   0.191   0.204   0.221   0.202   0.221   0.213   0.207   0.196   0.199   0.219   0.205   0.206   0.185   0.201   0.248   0.268   0.281   0.330   0.272   0.256   0.257   0.217   0.211   0.208   0.195   0.232   0.264   0.309   0.169   0.267   0.211
   256.00    0.230   0.188   0.215   0.187   0.209   0.229   0.204   0.213   0.205   0.206   0.256   0.263   0.271   0.326   0.174   0.214   0.189   0.238   0.198   0.209   0.246   0.290   0.207   0.155   0.272   0.183   0.274   0.287   0.160   0.211   0.296   0.206   0.220   0.224   0.201   0.228   0.257   0.245   0.237   0.242   0.220   0.177   0.252   0.182   0.205   0.265   0.168   0.216   0.229   0.175   0.233   0.223   0.206   0.207   0.284   0.261   0.211   0.288   0.258
   251.00    0.167   0.242   0.268   0.196   0.179   0.202   0.228   0.216   0.297   0.290   0.294   0.182   0.222   0.247   0.274   0.175   0.226   0.252   0.234   0.270   0.208   0.279   0.218   0.274   0.291   0.308   0.251   0.233   0.201   0.199   0.235   0.211   0.211   0.168   0.224   0.216   0.246   0.208   0.185   0.219   0.238   0.199   0.250   0.265   0.188   0.199   0.254   0.180   0.196   0.177   0.243   0.219   0.199   0.259   0.346   0.317   0.330   0.316   0.194
   246.00    0.250   0.207   0.228   0.204   0.260   0.203   0.214   0.214   0.255   0.280   0.261   0.182   0.202   0.204   0.192   0.209   0.221   0.255   0.188   0.286   0.313   0.234   0.309   0.276   0.202   0.276   0.334   0.177   0.167   0.191   0.178   0.211   0.223   0.290   0.295   0.290   0.255   0.230   0.196   0.239   0.216   0.208   0.198   0.202   0.276   0.199   0.235   0.283   0.164   0.268   0.208   0.230   0.214   0.223   0.294   0.353   0.375   0.185   0.247
   241.00    0.233   0.229   0.224   0.189   0.235   0.279   0.173   0.223   0.184   0.255   0.175   0.254   0.174   0.202   0.187   0.211   0.199   0.219   0.223   0.275   0.297   0.272   0.205   0.274   0.259   0.273   0.277   0.286   0.209   0.226   0.188   0.188   0.218   0.240   0.265   0.235   0.238   0.223   0.183   0.199   0.247   0.269   0.193   0.238   0.204   0.216   0.207   0.266   0.178   0.276   0.252   0.173   0.179   0.262   0.237   0.270   0.280   0.270   0.178
   236.00    0.197   0.276   0.238   0.255   0.168   0.219   0.230   0.272   0.183   0.184   0.234   0.305   0.266   0.181   0.222   0.209   0.238   0.190   0.256   0.268   0.307   0.283   0.193   0.210   0.271   0.224   0.216   0.210   0.276   0.311   0.182   0.217   0.203   0.197   0.232   0.232   0.208   0.220   0.235   0.191   0.170   0.170   0.189   0.235   0.245   0.271   0.186   0.236   0.263   0.258   0.297   0.284   0.212   0.241   0.225   0.240   0.185   0.189   0.290
   231.00    0.216   0.265   0.231   0.213   0.186   0.208   0.171   0.229   0.230   0.175   0.246   0.271   0.271   0.263   0.183   0.192   0.235   0.237   0.200   0.250   0.235   0.229   0.232   0.192   0.184   0.202   0.210   0.223   0.237   0.255   0.219   0.233   0.230   0.188   0.187   0.278   0.230   0.209   0.206   0.242   0.266   0.244   0.199   0.200   0.261   0.187   0.283   0.318   0.191   0.210   0.229   0.218   0.196   0.201   0.188   0.295   0.259   0.306   0.336
   226.00    0.235   0.268   0.189   0.262   0.203   0.163   0.224   0.230   0.176   0.192   0.237   0.201   0.210   0.220   0.218   0.248   0.193   0.223   0.234   0.252   0.213   0.211   0.215   0.255   0.257   0.320   0.238   0.215   0.189   0.170   0.260   0.282   0.198   0.183   0.230   0.299   0.237   0.256   0.171   0.202   0.253   0.233   0.199   0.252   0.290   0.266   0.281   0.232   0.290   0.216   0.218   0.191   0.210   0.244   0.286   0.293   0.246   0.254   0.259
   221.00    0.177   0.205   0.253   0.279   0.183   0.272   0.223   0.213   0.211   0.230   0.222   0.206   0.201   0.245   0.254   0.240   0.283   0.191   0.197   0.192   0.206   0.287   0.327   0.295   0.262   0.251   0.253   0.319   0.259   0.269   0.305   0.186   0.239   0.229   0.209   0.249   0.269   0.245   0.237   0.196   0.199   0.192   0.200   0.257   0.248   0.220   0.259   0.262   0.293   0.276   0.190   0.248   0.174   0.262   0.177   0.228   0.219   0.251   0.260
[...]
   196.00    0.205   0.268   0.196   0.225   0.172   0.202   0.185   0.232   0.258   0.244   0.272   0.171   0.185   0.237   0.178   0.257   0.326   0.332   0.210   0.272   0.192   0.223   0.216   0.195   0.257   0.333   0.275   0.196   0.219   0.286   0.279   0.253   0.256   0.296   0.334   0.221   0.199   0.184   0.241   0.185   0.190   0.243   0.308   0.227   0.185   0.207   0.201   0.244   0.334   0.270   0.259   0.312   0.327   0.277   0.339   0.286   0.309   0.227   0.170
   191.00    0.292   0.251   0.200   0.171   0.255   0.260   0.246   0.216   0.210   0.194   0.231   0.214   0.213   0.240   0.245   0.226   0.219   0.246   0.265   0.290   0.288   0.190   0.210   0.192   0.224   0.265   0.204   0.251   0.245   0.280   0.316   0.210   0.279   0.307   0.245   0.269   0.165   0.212   0.250   0.167   0.210   0.230   0.270   0.197   0.168   0.174   0.280   0.233   0.257   0.277   0.289   0.253   0.270   0.191   0.243   0.259   0.210   0.216   0.191
   186.00    0.261   0.270   0.182   0.236   0.289   0.212   0.183   0.215   0.200   0.219   0.222   0.203   0.197   0.227   0.201   0.216   0.307   0.204   0.226   0.255   0.238   0.256   0.194   0.191   0.228   0.171   0.174   0.183   0.178   0.268   0.254   0.196   0.246   0.219   0.218   0.175   0.251   0.207   0.186   0.219   0.201   0.179   0.222   0.278   0.291   0.291   0.342   0.363   0.223   0.207   0.248   0.262   0.173   0.214   0.190   0.170   0.188   0.265   0.199
   181.00    0.208   0.199   0.222   0.270   0.310   0.269   0.211   0.194   0.216   0.190   0.192   0.244   0.231   0.208   0.259   0.220   0.305   0.243   0.179   0.192   0.209   0.183   0.187   0.193   0.244   0.235   0.270   0.177   0.256   0.289   0.223   0.230   0.180   0.208   0.186   0.261   0.241   0.185   0.249   0.367   0.252   0.251   0.211   0.282   0.356   0.181   0.262   0.312   0.272   0.196   0.226   0.208   0.223   0.206   0.172   0.243   0.311   0.248   0.251
   176.00    0.198   0.238   0.163   0.240   0.238   0.202   0.230   0.223   0.186   0.168   0.264   0.255   0.176   0.186   0.200   0.193   0.280   0.271   0.214   0.184   0.197   0.208   0.229   0.240   0.222   0.181   0.221   0.199   0.240   0.255   0.268   0.239   0.208   0.242   0.212   0.233   0.221   0.186   0.278   0.314   0.354   0.344   0.274   0.339   0.330   0.274   0.250   0.328   0.356   0.237   0.192   0.226   0.209   0.204   0.223   0.182   0.240   0.261   0.225
   171.00    0.227   0.221   0.247   0.248   0.232   0.203   0.200   0.223   0.178   0.191   0.273   0.312   0.263   0.254   0.190   0.170   0.251   0.295   0.232   0.255   0.189   0.196   0.224   0.214   0.218   0.255   0.200   0.207   0.235   0.195   0.226   0.225   0.216   0.214   0.231   0.218   0.221   0.250   0.261   0.228   0.298   0.325   0.285   0.344   0.256   0.290   0.256   0.290   0.289   0.237   0.206   0.216   0.189   0.170   0.183   0.204   0.234   0.209   0.236
   166.00    0.185   0.193   0.198   0.170   0.194   0.206   0.176   0.186   0.207   0.186   0.241   0.215   0.215   0.227   0.212   0.173   0.320   0.404   0.217   0.255   0.202   0.206   0.223   0.197   0.164   0.211   0.218   0.204   0.200   0.194   0.156   0.248   0.186   0.197   0.245   0.312   0.286   0.210   0.221   0.229   0.280   0.332   0.371   0.329   0.231   0.183   0.214   0.234   0.227   0.185   0.183   0.201   0.237   0.196   0.247   0.219   0.247   0.254   0.202
   161.00    0.237   0.323   0.277   0.290   0.322   0.198   0.237   0.222   0.211   0.212   0.222   0.211   0.247   0.178   0.193   0.213   0.287   0.364   0.365   0.202   0.240   0.194   0.218   0.201   0.284   0.194   0.196   0.171   0.198   0.254   0.259   0.273   0.250   0.209   0.227   0.290   0.237   0.207   0.222   0.240   0.215   0.242   0.318   0.306   0.170   0.265   0.203   0.189   0.179   0.213   0.164   0.260   0.273   0.171   0.216   0.279   0.222   0.196   0.185
   156.00    0.254   0.299   0.284   0.311   0.288   0.231   0.299   0.188   0.215   0.239   0.195   0.230   0.302   0.258   0.246   0.233   0.298   0.262   0.321   0.289   0.211   0.260   0.199   0.213   0.233   0.220   0.226   0.254   0.218   0.214   0.172   0.240   0.178   0.236   0.165   0.208   0.227   0.277   0.176   0.217   0.193   0.229   0.255   0.300   0.205   0.197   0.286   0.156   0.240   0.237   0.282   0.274   0.226   0.186   0.246   0.240   0.226   0.237   0.184
   151.00    0.207   0.221   0.241   0.271   0.257   0.270   0.232   0.232   0.222   0.198   0.203   0.215   0.255   0.297   0.261   0.243   0.270   0.236   0.276   0.242   0.274   0.220   0.190   0.220   0.200   0.223   0.219   0.179   0.205   0.189   0.192   0.250   0.245   0.173   0.238   0.194   0.198   0.225   0.270   0.176   0.199   0.193   0.195   0.279   0.203   0.267   0.292   0.236   0.197   0.232   0.277   0.328   0.261   0.173   0.238   0.203   0.261   0.246   0.184
   146.00    0.214   0.183   0.220   0.209   0.234   0.247   0.156   0.175   0.227   0.172   0.219   0.201   0.263   0.339   0.266   0.230   0.205   0.189   0.238   0.296   0.239   0.180   0.174   0.261   0.233   0.235   0.193   0.212   0.177   0.262   0.158   0.227   0.183   0.292   0.171   0.190   0.170   0.300   0.330   0.241   0.186   0.220   0.193   0.242   0.245   0.249   0.282   0.220   0.304   0.175   0.200   0.258   0.301   0.164   0.284   0.311   0.339   0.217   0.283
   141.00    0.174   0.199   0.202   0.200   0.287   0.188   0.201   0.232   0.248   0.178   0.262   0.285   0.289   0.274   0.261   0.265   0.168   0.231   0.227   0.287   0.295   0.233   0.259   0.236   0.214   0.214   0.205   0.220   0.237   0.227   0.227   0.244   0.193   0.228   0.199   0.225   0.266   0.273   0.302   0.259   0.230   0.178   0.224   0.230   0.181   0.256   0.202   0.271   0.304   0.265   0.185   0.233   0.198   0.288   0.298   0.185   0.288   0.276   0.292
   136.00    0.199   0.262   0.189   0.258   0.286   0.293   0.233   0.218   0.230   0.261   0.258   0.198   0.228   0.225   0.215   0.216   0.189   0.243   0.293   0.322   0.266   0.256   0.232   0.213   0.226   0.249   0.191   0.227   0.208   0.173   0.190   0.292   0.218   0.234   0.218   0.255   0.289   0.189   0.281   0.176   0.200   0.240   0.232   0.189   0.319   0.201   0.223   0.267   0.281   0.250   0.170   0.229   0.234   0.286   0.329   0.318   0.274   0.237   0.234
   131.00    0.235   0.202   0.208   0.208   0.175   0.256   0.197   0.214   0.216   0.220   0.214   0.260   0.316   0.185   0.195   0.196   0.167   0.253   0.303   0.252   0.189   0.210   0.217   0.243   0.189   0.244   0.219   0.196   0.246   0.204   0.217   0.313   0.328   0.322   0.154   0.267   0.285   0.273   0.256   0.210   0.181   0.240   0.247   0.212   0.284   0.321   0.187   0.240   0.267   0.205   0.194   0.238   0.180   0.239   0.294   0.310   0.186   0.184   0.231
   126.00    0.203   0.192   0.197   0.180   0.224   0.245   0.280   0.241   0.173   0.215   0.230   0.261   0.297   0.250   0.199   0.197   0.197   0.200   0.220   0.232   0.179   0.188   0.190   0.214   0.213   0.195   0.222   0.235   0.214   0.225   0.218   0.279   0.233   0.258   0.261   0.185   0.282   0.182   0.196   0.195   0.255   0.296   0.222   0.187   0.211   0.204   0.231   0.216   0.221   0.216   0.239   0.243   0.206   0.280   0.295   0.298   0.146   0.212   0.212
   121.00    0.205   0.209   0.187   0.220   0.173   0.260   0.261   0.255   0.168   0.182   0.213   0.210   0.236   0.208   0.223   0.168   0.208   0.216   0.192   0.226   0.255   0.203   0.228   0.178   0.219   0.235   0.252   0.169   0.246   0.166   0.194   0.190   0.256   0.255   0.250   0.253   0.254   0.259   0.238   0.192   0.208   0.247   0.206   0.201   0.215   0.217   0.181   0.209   0.245   0.220   0.195   0.211   0.242   0.308   0.310   0.280   0.272   0.211   0.213
   116.00    0.204   0.192   0.221   0.198   0.230   0.242   0.203   0.184   0.201   0.178   0.170   0.246   0.178   0.182   0.202   0.217   0.243   0.186   0.194   0.235   0.182   0.218   0.228   0.204   0.288   0.166   0.237   0.252   0.198   0.217   0.224   0.196   0.220   0.253   0.181   0.205   0.234   0.200   0.204   0.227   0.192   0.232   0.153   0.192   0.203   0.240   0.185   0.222   0.192   0.221   0.225   0.239   0.196   0.283   0.312   0.282   0.212   0.188   0.243
   111.00    0.201   0.200   0.166   0.244   0.221   0.234   0.170   0.226   0.193   0.217   0.275   0.222   0.258   0.280   0.272   0.209   0.239   0.193   0.199   0.214   0.197   0.212   0.236   0.304   0.291   0.177   0.205   0.182   0.190   0.206   0.219   0.199   0.200   0.232   0.186   0.218   0.198   0.178   0.186   0.200   0.192   0.177   0.215   0.270   0.226   0.281   0.288   0.214   0.185   0.172   0.197   0.206   0.240   0.291   0.295   0.281   0.278   0.222   0.221
   106.00    0.287   0.191   0.231   0.210   0.210   0.218   0.227   0.185   0.293   0.301   0.265   0.215   0.260   0.208   0.221   0.248   0.171   0.215   0.224   0.186   0.218   0.279   0.217   0.311   0.182   0.217   0.230   0.234   0.228   0.239   0.206   0.268   0.259   0.298   0.287   0.268   0.236   0.236   0.159   0.228   0.174   0.216   0.206   0.188   0.273   0.218   0.222   0.198   0.200   0.258   0.184   0.220   0.166   0.235   0.294   0.313   0.220   0.219   0.197
   101.00    0.229   0.265   0.200   0.200   0.214   0.213   0.219   0.266   0.293   0.264   0.194   0.199   0.223   0.193   0.262   0.220   0.260   0.243   0.193   0.250   0.230   0.241   0.206   0.321   0.175   0.245   0.226   0.177   0.204   0.233   0.169   0.265   0.328   0.364   0.228   0.210   0.196   0.175   0.227   0.218   0.196   0.167   0.229   0.211   0.245   0.303   0.281   0.267   0.252   0.286   0.205   0.207   0.244   0.210   0.254   0.244   0.240   0.192   0.221
    96.00    0.206   0.247   0.183   0.182   0.178   0.212   0.236   0.172   0.201   0.261   0.189   0.172   0.213   0.185   0.229   0.204   0.162   0.261   0.318   0.240   0.249   0.185   0.192   0.269   0.256   0.256   0.196   0.231   0.196   0.194   0.192   0.243   0.279   0.303   0.328   0.248   0.228   0.224   0.195   0.222   0.212   0.245   0.318   0.320   0.240   0.274   0.301   0.189   0.221   0.258   0.220   0.297   0.180   0.204   0.243   0.182   0.214   0.297   0.237
    91.00    0.214   0.184   0.243   0.174   0.242   0.205   0.289   0.252   0.319   0.324   0.190   0.239   0.222   0.181   0.205   0.207   0.231   0.257   0.276   0.201   0.205   0.263   0.202   0.222   0.306   0.193   0.248   0.238   0.206   0.184   0.230   0.260   0.235   0.291   0.282   0.261   0.244   0.264   0.248   0.202   0.217   0.202   0.208   0.265   0.265   0.218   0.272   0.226   0.173   0.226   0.237   0.242   0.285   0.196   0.238   0.234   0.283   0.339   0.282
    86.00    0.207   0.195   0.209   0.218   0.266   0.242   0.246   0.347   0.308   0.282   0.257   0.303   0.195   0.194   0.180   0.188   0.221   0.226   0.198   0.291   0.226   0.231   0.214   0.266   0.242   0.270   0.223   0.213   0.240   0.215   0.225   0.212   0.230   0.256   0.218   0.197   0.189   0.206   0.196   0.184   0.179   0.186   0.202   0.191   0.225   0.202   0.247   0.193   0.218   0.192   0.256   0.302   0.277   0.186   0.209   0.290   0.249   0.307   0.290
    81.00    0.220   0.209   0.189   0.215   0.264   0.216   0.248   0.310   0.354   0.373   0.376   0.228   0.221   0.163   0.232   0.239   0.259   0.242   0.276   0.284   0.229   0.201   0.255   0.213   0.234   0.187   0.215   0.197   0.198   0.218   0.248   0.192   0.215   0.234   0.179   0.185   0.221   0.193   0.275   0.222   0.217   0.162   0.214   0.204   0.194   0.223   0.289   0.217   0.219   0.249   0.193   0.270   0.246   0.233   0.202   0.277   0.291   0.261   0.245
    76.00    0.244   0.228   0.170   0.180   0.241   0.262   0.269   0.263   0.275   0.312   0.300   0.333   0.275   0.236   0.261   0.237   0.201   0.242   0.266   0.274   0.215   0.191   0.241   0.259   0.224   0.231   0.190   0.226   0.258   0.182   0.243   0.308   0.316   0.286   0.269   0.235   0.233   0.253   0.236   0.210   0.186   0.195   0.232   0.192   0.208   0.186   0.262   0.227   0.197   0.231   0.271   0.291   0.287   0.216   0.246   0.211   0.227   0.204   0.220
    71.00    0.174   0.256   0.234   0.240   0.237   0.229   0.208   0.195   0.244   0.250   0.262   0.285   0.292   0.244   0.186   0.224   0.220   0.179   0.221   0.220   0.264   0.258   0.276   0.297   0.369   0.326   0.200   0.276   0.178   0.226   0.203   0.261   0.235   0.189   0.223   0.225   0.205   0.210   0.205   0.169   0.240   0.215   0.236   0.323   0.276   0.182   0.220   0.244   0.266   0.205   0.177   0.220   0.239   0.237   0.175   0.157   0.211   0.188   0.221
    66.00    0.226   0.265   0.212   0.244   0.179   0.187   0.184   0.199   0.253   0.188   0.210   0.188   0.220   0.207   0.204   0.227   0.218   0.221   0.168   0.259   0.333   0.209   0.263   0.312   0.343   0.275   0.221   0.238   0.300   0.255   0.260   0.289   0.197   0.224   0.247   0.173   0.199   0.253   0.219   0.215   0.229   0.177   0.229   0.240   0.275   0.183   0.203   0.227   0.234   0.181   0.254   0.270   0.242   0.220   0.298   0.261   0.280   0.239   0.215
    61.00    0.191   0.226   0.199   0.237   0.249   0.214   0.257   0.247   0.237   0.245   0.201   0.272   0.252   0.207   0.202   0.202   0.191   0.222   0.201   0.241   0.314   0.214   0.181   0.266   0.303   0.284   0.201   0.190   0.295   0.179   0.214   0.280   0.243   0.230   0.222   0.213   0.210   0.188   0.211   0.263   0.234   0.218   0.193   0.229   0.244   0.223   0.214   0.207   0.184   0.185   0.243   0.267   0.252   0.261   0.299   0.241   0.214   0.259   0.255
    56.00    0.213   0.207   0.218   0.181   0.237   0.251   0.284   0.190   0.215   0.244   0.193   0.210   0.209   0.174   0.221   0.181   0.262   0.231   0.171   0.209   0.253   0.296   0.270   0.296   0.330   0.223   0.199   0.188   0.242   0.269   0.249   0.214   0.243   0.282   0.204   0.228   0.195   0.255   0.180   0.210   0.183   0.229   0.231   0.223   0.208   0.247   0.212   0.217   0.197   0.268   0.185   0.285   0.156   0.246   0.330   0.189   0.180   0.195   0.276
    51.00    0.216   0.184   0.277   0.194   0.289   0.265   0.266   0.194   0.180   0.229   0.226   0.162   0.207   0.238   0.168   0.230   0.252   0.181   0.241   0.261   0.195   0.197   0.216   0.315   0.308   0.244   0.247   0.170   0.224   0.258   0.178   0.182   0.199   0.215   0.215   0.203   0.226   0.220   0.218   0.236   0.203   0.229   0.201   0.257   0.167   0.268   0.283   0.259   0.257   0.215   0.251   0.330   0.309   0.210   0.275   0.358   0.198   0.275   0.302
    46.00    0.300   0.344   0.233   0.269   0.291   0.250   0.278   0.232   0.252   0.205   0.203   0.224   0.165   0.197   0.187   0.238   0.222   0.215   0.179   0.259   0.149   0.199   0.236   0.264   0.243   0.245   0.210   0.157   0.182   0.224   0.167   0.225   0.254   0.191   0.210   0.185   0.236   0.192   0.234   0.210   0.203   0.200   0.231   0.204   0.310   0.291   0.199   0.208   0.263   0.192   0.252   0.317   0.196   0.198   0.292   0.368   0.339   0.286   0.247
    41.00    0.261   0.274   0.280   0.267   0.278   0.248   0.311   0.193   0.181   0.271   0.192   0.252   0.263   0.237   0.260   0.297   0.251   0.187   0.189   0.239   0.190   0.252   0.211   0.180   0.220   0.243   0.261   0.233   0.255   0.187   0.281   0.224   0.230   0.276   0.181   0.284   0.250   0.184   0.207   0.212   0.240   0.176   0.260   0.273   0.275   0.318   0.278   0.186   0.244   0.164   0.240   0.292   0.231   0.213   0.267   0.344   0.295   0.268   0.269
    36.00    0.212   0.192   0.244   0.185   0.249   0.272   0.305   0.242   0.299   0.267   0.213   0.197   0.208   0.219   0.234   0.269   0.227   0.187   0.186   0.247   0.252   0.212   0.198   0.256   0.173   0.235   0.206   0.197   0.192   0.192   0.273   0.291   0.305   0.293   0.210   0.249   0.303   0.176   0.215   0.187   0.244   0.280   0.331   0.235   0.185   0.286   0.294   0.279   0.190   0.204   0.253   0.226   0.188   0.249   0.167   0.277   0.337   0.325   0.297
    31.00    0.232   0.203   0.238   0.213   0.316   0.180   0.302   0.261   0.273   0.240   0.183   0.179   0.244   0.195   0.191   0.217   0.201   0.186   0.258   0.227   0.233   0.273   0.191   0.200   0.232   0.163   0.176   0.212   0.180   0.245   0.274   0.210   0.249   0.179   0.261   0.175   0.228   0.250   0.230   0.207   0.225   0.252   0.291   0.187   0.272   0.310   0.305   0.233   0.267   0.229   0.184   0.176   0.243   0.277   0.270   0.258   0.264   0.302   0.240
    26.00    0.177   0.189   0.194   0.230   0.240   0.233   0.257   0.279   0.215   0.200   0.203   0.183   0.230   0.254   0.200   0.221   0.179   0.276   0.228   0.247   0.199   0.176   0.218   0.228   0.187   0.225   0.253   0.320   0.259   0.255   0.257   0.241   0.288   0.278   0.250   0.225   0.199   0.235   0.173   0.202   0.274   0.180   0.250   0.285   0.246   0.209   0.222   0.180   0.205   0.264   0.175   0.206   0.262   0.218   0.236   0.213   0.255   0.271   0.233
    21.00    0.185   0.247   0.196   0.217   0.207   0.187   0.269   0.183   0.231   0.204   0.201   0.196   0.176   0.176   0.228   0.189   0.209   0.288   0.188   0.296   0.193   0.195   0.205   0.228   0.249   0.200   0.171   0.282   0.323   0.217   0.261   0.239   0.281   0.286   0.222   0.265   0.229   0.201   0.241   0.273   0.216   0.216   0.233   0.271   0.197   0.222   0.170   0.209   0.219   0.206   0.199   0.158   0.217   0.213   0.205   0.232   0.278   0.191   0.197
    16.00    0.237   0.175   0.200   0.256   0.147   0.263   0.237   0.250   0.224   0.208   0.207   0.216   0.188   0.259   0.226   0.195   0.239   0.208   0.251   0.333   0.299   0.191   0.198   0.277   0.169   0.229   0.218   0.243   0.279   0.232   0.203   0.177   0.242   0.233   0.212   0.238   0.204   0.207   0.226   0.237   0.260   0.216   0.201   0.231   0.205   0.249   0.208   0.211   0.172   0.243   0.205   0.232   0.197   0.267   0.180   0.273   0.243   0.196   0.217
    11.00    0.226   0.199   0.218   0.230   0.236   0.207   0.258   0.204   0.204   0.231   0.190   0.244   0.234   0.182   0.220   0.171   0.270   0.332   0.262   0.303   0.313   0.262   0.194   0.253   0.178   0.242   0.171   0.233   0.217   0.206   0.201   0.223   0.224   0.296   0.252   0.335   0.277   0.191   0.207   0.172   0.206   0.203   0.220   0.246   0.194   0.216   0.214   0.227   0.202   0.178   0.189   0.228   0.223   0.256   0.251   0.284   0.214   0.192   0.203
     6.00    0.204   0.268   0.175   0.211   0.240   0.187   0.203   0.222   0.202   0.184   0.170   0.229   0.295   0.286   0.210   0.258   0.263   0.287   0.328   0.347   0.310   0.195   0.228   0.268   0.209   0.212   0.247   0.250   0.195   0.213   0.163   0.197   0.235   0.290   0.314   0.303   0.308   0.264   0.182   0.282   0.262   0.232   0.273   0.273   0.176   0.264   0.218   0.197   0.201   0.200   0.231   0.259   0.205   0.257   0.198   0.258   0.185   0.273   0.209
     1.00    0.237   0.241   0.250   0.174   0.204   0.224   0.230   0.272   0.307   0.296   0.310   0.304   0.325   0.214   0.189   0.223   0.243   0.286   0.298   0.289   0.316   0.163   0.231   0.282   0.214   0.214   0.243   0.201   0.260   0.193   0.192   0.204   0.188   0.237   0.285   0.236   0.266   0.297   0.321   0.316   0.289   0.209   0.189   0.258   0.247   0.222   0.271   0.212   0.228   0.204   0.210   0.220   0.259   0.295   0.314   0.218   0.228   0.263   0.264

   Mean standard deviation across all grid points:
      u component:    0.242 m/s
      v component:    0.255 m/s
      w component:    0.232 m/s


U-component (X) statistics from the interpolated hub point:

   Mean =   5.2698 m/s
   TI   =   3.7062 %


Processing complete.  719.65 CPU seconds used.
