
This summary file was generated by TurbSim (from OpenFAST-v3.5.0) on 23-Apr-2024 at 21:56:17.


Runtime Options:

   2318573  Random seed #1
    RANLUX  Type of random number generator
         F  Output binary HH turbulence parameters?
         F  Output formatted turbulence parameters?
         F  Output AeroDyn HH files?
         T  Output AeroDyn FF files?
         F  Output BLADED FF files?
         F  Output tower data?
         F  Output HAWC FF files?
         F  Output formatted FF files?
         T  Output coherent turbulence time step file?
 0 -  NONE  IEC turbulence models scaled to exact specified standard deviation


Turbine/Model Specifications:

        33  Vertical grid-point matrix dimension
        75  Horizontal grid-point matrix dimension
     0.300  Time step [seconds]
    20.000  Analysis time [seconds]
    20.000  Usable output time [seconds]
   321.000  Hub height [m]
   640.000  Grid height [m]
  1480.000  Grid width [m]
     0.000  Vertical flow angle [degrees]
     0.000  Horizontal flow angle [degrees]


Meteorological Boundary Conditions:

    IECKAI  IEC Kaimal spectral model
         1  IEC standard: IEC 61400-1 Ed. 3: 2005
    10.000  Percent turbulence intensity, IEC 61400-1 Ed. 3: 2005
       NTM  IEC Normal Turbulence Model
       N/A  IEC Extreme Turbulence Model (ETM) "c" parameter [m/s]
       PL   Wind profile type
   150.000  Reference height [m]
     5.245  Reference wind speed [m/s]
       N/A  Jet height [m]
     0.120  Power law exponent
     0.030  Surface roughness length [m]


Non-IEC Meteorological Boundary Conditions:

       N/A  Site latitude [degrees]
       N/A  Gradient Richardson number
       N/A  Friction or shear velocity [m/s]
       N/A  Mixing layer depth [m]
       N/A  Mean hub u'w' Reynolds stress
       N/A  Mean hub u'v' Reynolds stress
       N/A  Mean hub v'w' Reynolds stress


Spatial Coherence Models:

       IEC  u-component coherence model
       IEC  v-component coherence model
       IEC  w-component coherence model
(   12.000, 0.353E-03)  u-component coherence parameters
(   12.000, 0.353E-03)  v-component coherence parameters
(   12.000, 0.353E-03)  w-component coherence parameters
       N/A  Coherence exponent


You have requested that the following file(s) be generated:

   /projects/rlfarmcontr/RLControl_Parallel/RLControl/windfarm_v1p0/FFSetup/../FFSim/Sim_1713930974.7847342/Cond00_v05.2_PL0.12_TI10/Seed_0/Low.bts (AeroDyn/TurbSim full-field wind file)


Turbulence Simulation Scaling Parameter Summary:

   Turbulence model used                            =  IEC Kaimal
   Turbulence characteristic                        =  User-specified
   IEC standard                                     =  IEC 61400-1 Ed. 3: 2005
   Mean wind speed at hub height                    =    5.746 m/s
   Characteristic value of standard deviation       =    0.575 m/s
   Turbulence scale                                 =   42.000 m
   u-component integral scale                       =  340.200 m
   Coherency scale                                  =  340.200 m
   Characteristic value of hub turbulence intensity =   10.000%
   Gradient Richardson number                       =    0.000

   Wind profile type                                =  Power law
   Power law exponent                               =    0.120
   Mean shear across rotor disk                     =    0.005 (m/s)/m
   Assumed rotor diameter                           =  640.000 m
   Surface roughness length                         =    0.030 m

   Nyquist frequency of turbulent wind field        =    1.667 Hz

   Number of time steps in the FFT                  =       68
   Number of time steps output                      =       68
   Number of points simulated                       =     2475


Mean Flow Angles:

   Vertical   =   0.0 degrees
   Horizontal =   0.0 degrees

Mean Wind Speed Profile:

   Height    Wind Speed   Horizontal Angle  Vertical Angle  U-comp (X)   V-comp (Y)   W-comp (Z)
     (m)        (m/s)         (degrees)       (degrees)       (m/s)        (m/s)        (m/s)   
   ------    ----------   ----------------  --------------  ----------   ----------   ----------
    641.0        6.24            0.00            0.00          6.24         0.00         0.00
    621.0        6.22            0.00            0.00          6.22         0.00         0.00
    601.0        6.20            0.00            0.00          6.20         0.00         0.00
    581.0        6.17            0.00            0.00          6.17         0.00         0.00
    561.0        6.14            0.00            0.00          6.14         0.00         0.00
    541.0        6.12            0.00            0.00          6.12         0.00         0.00
    521.0        6.09            0.00            0.00          6.09         0.00         0.00
    501.0        6.06            0.00            0.00          6.06         0.00         0.00
    481.0        6.03            0.00            0.00          6.03         0.00         0.00
    461.0        6.00            0.00            0.00          6.00         0.00         0.00
    441.0        5.97            0.00            0.00          5.97         0.00         0.00
    421.0        5.94            0.00            0.00          5.94         0.00         0.00
    401.0        5.90            0.00            0.00          5.90         0.00         0.00
    381.0        5.87            0.00            0.00          5.87         0.00         0.00
    361.0        5.83            0.00            0.00          5.83         0.00         0.00
    341.0        5.79            0.00            0.00          5.79         0.00         0.00
    321.0        5.75            0.00            0.00          5.75         0.00         0.00
    301.0        5.70            0.00            0.00          5.70         0.00         0.00
    281.0        5.66            0.00            0.00          5.66         0.00         0.00
    261.0        5.61            0.00            0.00          5.61         0.00         0.00
    241.0        5.55            0.00            0.00          5.55         0.00         0.00
    221.0        5.49            0.00            0.00          5.49         0.00         0.00
    201.0        5.43            0.00            0.00          5.43         0.00         0.00
    181.0        5.36            0.00            0.00          5.36         0.00         0.00
    161.0        5.29            0.00            0.00          5.29         0.00         0.00
    141.0        5.21            0.00            0.00          5.21         0.00         0.00
    121.0        5.11            0.00            0.00          5.11         0.00         0.00
    101.0        5.00            0.00            0.00          5.00         0.00         0.00
     81.0        4.87            0.00            0.00          4.87         0.00         0.00
     61.0        4.71            0.00            0.00          4.71         0.00         0.00
     41.0        4.49            0.00            0.00          4.49         0.00         0.00
     21.0        4.14            0.00            0.00          4.14         0.00         0.00
      1.0        2.87            0.00            0.00          2.87         0.00         0.00


Harvested Random Seeds after Generation of the Random Numbers:

      2345532 K 1
            0 K 2


Hub-Height Simulated Turbulence Statistical Summary:

   Type of Wind        Min (m/s)   Mean (m/s)    Max (m/s)  Sigma (m/s)       TI (%)
   ----------------    ---------   ----------    ---------  -----------       ------
   Longitudinal (u)         5.14         5.75         6.28        0.249        4.336
   Lateral (v)             -0.50        -0.00         0.45        0.241        4.199
   Vertical (w)            -0.42        -0.00         0.54        0.223        3.874
   U component              5.14         5.75         6.28        0.249        4.336
   V component             -0.50        -0.00         0.45        0.241        4.199
   W component             -0.42        -0.00         0.54        0.223        3.874
   Horizontal (U&V)         5.14         5.75         6.28        0.249        4.330
   Total                    5.16         5.76         6.29        0.247        4.297

                       Min Reynolds     Mean Reynolds    Max Reynolds    Correlation
   Product             Stress (m/s)^2   Stress (m/s)^2   Stress (m/s)^2  Coefficient
   ----------------    --------------   --------------   --------------  -----------
   u'w'                     -0.300            -0.024             0.056        -0.433
   u'v'                     -0.116            -0.004             0.154        -0.064
   v'w'                     -0.044             0.026             0.199         0.481


   Friction Velocity (Ustar)  =      0.155 m/s
   Maximum Instantaneous TKE  =      0.309 (m/s)^2
   Maximum Instantaneous CTKE =      0.158 (m/s)^2


Grid Point Variance Summary:

   Y-coord -740.00 -720.00 -700.00 -680.00 -660.00 -640.00 -620.00 -600.00 -580.00 -560.00 -540.00 -520.00 -500.00 -480.00 -460.00 -440.00 -420.00 -400.00 -380.00 -360.00 -340.00 -320.00 -300.00 -280.00 -260.00 -240.00 -220.00 -200.00 -180.00 -160.00 -140.00 -120.00 -100.00  -80.00  -60.00  -40.00  -20.00    0.00   20.00   40.00   60.00   80.00  100.00  120.00  140.00  160.00  180.00  200.00  220.00  240.00  260.00  280.00  300.00  320.00  340.00  360.00  380.00  400.00  420.00  440.00  460.00  480.00  500.00  520.00  540.00  560.00  580.00  600.00  620.00  640.00  660.00  680.00  700.00  720.00  740.00

   Height   Standard deviation at grid points for the u component:
   641.00    0.248   0.238   0.267   0.235   0.249   0.259   0.279   0.234   0.227   0.227   0.261   0.246   0.256   0.231   0.262   0.258   0.260   0.253   0.260   0.247   0.245   0.251   0.251   0.234   0.267   0.237   0.264   0.271   0.216   0.253   0.254   0.218   0.225   0.244   0.221   0.238   0.257   0.231   0.250   0.239   0.260   0.245   0.240   0.235   0.238   0.239   0.247   0.224   0.266   0.259   0.233   0.230   0.243   0.225   0.226   0.256   0.246   0.249   0.216   0.262   0.273   0.274   0.249   0.216   0.252   0.229   0.248   0.279   0.265   0.270   0.244   0.244   0.228   0.243   0.238
   621.00    0.264   0.262   0.249   0.240   0.225   0.220   0.233   0.247   0.255   0.229   0.252   0.215   0.226   0.254   0.246   0.247   0.240   0.269   0.237   0.220   0.235   0.249   0.245   0.260   0.243   0.230   0.252   0.237   0.225   0.240   0.256   0.257   0.245   0.261   0.270   0.218   0.260   0.241   0.239   0.242   0.243   0.223   0.254   0.277   0.286   0.240   0.257   0.263   0.238   0.258   0.261   0.235   0.248   0.274   0.225   0.232   0.268   0.217   0.258   0.269   0.250   0.239   0.246   0.256   0.262   0.245   0.238   0.261   0.267   0.277   0.284   0.286   0.220   0.245   0.250
   601.00    0.234   0.260   0.221   0.250   0.234   0.252   0.268   0.238   0.270   0.230   0.260   0.272   0.277   0.270   0.228   0.243   0.253   0.237   0.261   0.257   0.268   0.261   0.244   0.224   0.235   0.256   0.247   0.247   0.254   0.277   0.221   0.230   0.236   0.247   0.238   0.259   0.245   0.231   0.236   0.246   0.253   0.251   0.271   0.242   0.274   0.262   0.247   0.246   0.245   0.248   0.249   0.263   0.226   0.244   0.247   0.247   0.255   0.258   0.229   0.255   0.229   0.243   0.256   0.262   0.276   0.249   0.217   0.252   0.271   0.280   0.275   0.253   0.260   0.261   0.254
   581.00    0.232   0.256   0.242   0.253   0.247   0.249   0.247   0.228   0.247   0.270   0.264   0.244   0.247   0.265   0.225   0.252   0.268   0.277   0.220   0.254   0.263   0.248   0.228   0.249   0.272   0.262   0.245   0.233   0.258   0.248   0.236   0.239   0.226   0.237   0.267   0.230   0.236   0.239   0.239   0.246   0.225   0.258   0.270   0.225   0.265   0.247   0.232   0.240   0.236   0.248   0.268   0.246   0.256   0.218   0.264   0.258   0.234   0.247   0.265   0.232   0.238   0.250   0.232   0.239   0.253   0.264   0.279   0.226   0.248   0.269   0.244   0.236   0.228   0.244   0.247
   561.00    0.238   0.254   0.271   0.241   0.246   0.271   0.248   0.223   0.225   0.255   0.226   0.241   0.263   0.225   0.260   0.231   0.242   0.257   0.259   0.265   0.265   0.218   0.239   0.238   0.268   0.246   0.251   0.267   0.245   0.240   0.239   0.258   0.272   0.250   0.220   0.251   0.231   0.228   0.252   0.234   0.231   0.250   0.266   0.270   0.257   0.225   0.237   0.259   0.251   0.237   0.272   0.227   0.276   0.286   0.263   0.250   0.239   0.243   0.259   0.239   0.248   0.238   0.262   0.232   0.236   0.228   0.256   0.254   0.235   0.260   0.270   0.242   0.225   0.256   0.216
   541.00    0.242   0.225   0.261   0.277   0.222   0.265   0.265   0.263   0.253   0.228   0.254   0.256   0.220   0.243   0.245   0.224   0.241   0.223   0.240   0.257   0.215   0.252   0.247   0.272   0.230   0.264   0.269   0.234   0.251   0.255   0.258   0.225   0.258   0.234   0.244   0.238   0.256   0.250   0.257   0.252   0.255   0.260   0.263   0.270   0.241   0.236   0.252   0.249   0.239   0.249   0.235   0.253   0.256   0.265   0.254   0.235   0.247   0.238   0.226   0.224   0.256   0.234   0.238   0.259   0.244   0.270   0.237   0.236   0.231   0.226   0.231   0.260   0.260   0.251   0.262
   521.00    0.237   0.226   0.255   0.255   0.261   0.228   0.239   0.233   0.239   0.246   0.256   0.248   0.255   0.244   0.250   0.238   0.265   0.241   0.233   0.237   0.264   0.269   0.230   0.253   0.260   0.223   0.237   0.249   0.259   0.239   0.253   0.234   0.227   0.237   0.246   0.242   0.226   0.228   0.232   0.247   0.229   0.249   0.275   0.232   0.233   0.262   0.232   0.242   0.249   0.242   0.221   0.233   0.252   0.238   0.248   0.257   0.221   0.251   0.230   0.228   0.255   0.220   0.254   0.226   0.262   0.241   0.240   0.246   0.265   0.226   0.262   0.238   0.242   0.228   0.236
   501.00    0.261   0.213   0.227   0.234   0.247   0.258   0.228   0.231   0.262   0.264   0.250   0.233   0.233   0.243   0.233   0.248   0.248   0.220   0.234   0.246   0.265   0.242   0.230   0.248   0.256   0.277   0.258   0.258   0.256   0.229   0.250   0.273   0.221   0.260   0.265   0.256   0.261   0.235   0.233   0.246   0.253   0.221   0.239   0.243   0.231   0.248   0.242   0.234   0.237   0.255   0.283   0.217   0.224   0.250   0.220   0.261   0.259   0.253   0.258   0.225   0.264   0.216   0.236   0.262   0.218   0.248   0.244   0.277   0.276   0.261   0.217   0.264   0.271   0.225   0.245
   481.00    0.242   0.264   0.272   0.256   0.270   0.253   0.248   0.238   0.235   0.255   0.230   0.255   0.279   0.214   0.239   0.222   0.245   0.259   0.226   0.254   0.224   0.238   0.249   0.230   0.235   0.250   0.227   0.253   0.257   0.249   0.260   0.247   0.258   0.251   0.248   0.252   0.251   0.242   0.250   0.254   0.237   0.245   0.222   0.244   0.223   0.242   0.274   0.250   0.227   0.265   0.272   0.244   0.238   0.270   0.266   0.246   0.223   0.222   0.241   0.234   0.240   0.271   0.273   0.253   0.271   0.263   0.237   0.262   0.259   0.231   0.246   0.255   0.238   0.257   0.240
   461.00    0.226   0.252   0.260   0.240   0.231   0.253   0.242   0.268   0.236   0.229   0.234   0.259   0.236   0.270   0.254   0.241   0.243   0.259   0.259   0.226   0.253   0.253   0.250   0.251   0.243   0.216   0.252   0.257   0.226   0.246   0.250   0.260   0.245   0.238   0.240   0.256   0.268   0.215   0.257   0.258   0.253   0.244   0.259   0.260   0.256   0.226   0.246   0.244   0.230   0.251   0.251   0.230   0.257   0.252   0.232   0.233   0.249   0.244   0.254   0.251   0.231   0.241   0.270   0.222   0.259   0.259   0.230   0.262   0.272   0.251   0.273   0.285   0.226   0.234   0.251
   441.00    0.257   0.283   0.224   0.250   0.245   0.233   0.237   0.231   0.245   0.250   0.216   0.246   0.237   0.235   0.259   0.256   0.251   0.240   0.217   0.239   0.240   0.239   0.235   0.245   0.222   0.259   0.278   0.230   0.220   0.247   0.239   0.253   0.226   0.230   0.235   0.236   0.247   0.256   0.250   0.256   0.243   0.256   0.248   0.225   0.247   0.235   0.235   0.236   0.245   0.249   0.235   0.262   0.234   0.249   0.246   0.254   0.219   0.251   0.252   0.252   0.234   0.228   0.234   0.239   0.225   0.260   0.241   0.270   0.261   0.239   0.259   0.281   0.260   0.254   0.241
   421.00    0.254   0.266   0.281   0.244   0.261   0.242   0.235   0.254   0.250   0.246   0.277   0.247   0.240   0.241   0.250   0.248   0.253   0.246   0.254   0.274   0.217   0.237   0.234   0.236   0.241   0.232   0.259   0.252   0.275   0.265   0.250   0.219   0.261   0.228   0.224   0.264   0.239   0.274   0.229   0.247   0.233   0.257   0.234   0.244   0.267   0.249   0.258   0.254   0.243   0.221   0.238   0.243   0.245   0.243   0.227   0.241   0.231   0.255   0.256   0.225   0.228   0.245   0.239   0.255   0.237   0.239   0.233   0.246   0.256   0.251   0.251   0.270   0.260   0.243   0.228
   401.00    0.239   0.269   0.257   0.262   0.232   0.227   0.253   0.235   0.247   0.224   0.256   0.287   0.261   0.234   0.220   0.249   0.257   0.271   0.238   0.221   0.238   0.247   0.252   0.240   0.243   0.246   0.227   0.230   0.255   0.239   0.228   0.241   0.243   0.254   0.262   0.248   0.220   0.256   0.241   0.264   0.249   0.234   0.224   0.234   0.264   0.251   0.245   0.238   0.224   0.242   0.232   0.262   0.236   0.236   0.241   0.226   0.247   0.233   0.229   0.260   0.241   0.229   0.257   0.248   0.260   0.245   0.259   0.244   0.243   0.245   0.232   0.241   0.234   0.222   0.255
   381.00    0.231   0.249   0.255   0.243   0.233   0.234   0.253   0.221   0.242   0.237   0.273   0.266   0.254   0.248   0.264   0.277   0.216   0.244   0.267   0.278   0.251   0.231   0.241   0.261   0.240   0.237   0.236   0.233   0.252   0.237   0.235   0.264   0.239   0.251   0.272   0.241   0.268   0.211   0.260   0.221   0.234   0.252   0.264   0.218   0.260   0.220   0.255   0.240   0.238   0.252   0.279   0.255   0.227   0.241   0.231   0.230   0.247   0.252   0.228   0.245   0.267   0.274   0.225   0.237   0.260   0.236   0.237   0.227   0.237   0.223   0.240   0.260   0.266   0.254   0.246
   361.00    0.238   0.239   0.250   0.240   0.266   0.259   0.263   0.239   0.233   0.259   0.237   0.252   0.239   0.246   0.267   0.272   0.249   0.262   0.264   0.257   0.232   0.242   0.231   0.253   0.249   0.241   0.255   0.222   0.253   0.273   0.223   0.230   0.268   0.223   0.240   0.227   0.230   0.252   0.256   0.244   0.261   0.270   0.245   0.256   0.275   0.232   0.253   0.225   0.254   0.253   0.274   0.251   0.229   0.242   0.239   0.261   0.272   0.232   0.250   0.219   0.258   0.272   0.228   0.228   0.227   0.256   0.255   0.247   0.255   0.249   0.238   0.245   0.241   0.229   0.243
   341.00    0.245   0.221   0.230   0.239   0.242   0.254   0.237   0.242   0.233   0.236   0.247   0.265   0.235   0.258   0.249   0.258   0.238   0.235   0.268   0.231   0.249   0.221   0.223   0.240   0.229   0.252   0.240   0.246   0.255   0.252   0.239   0.232   0.227   0.247   0.239   0.230   0.245   0.229   0.266   0.261   0.245   0.248   0.241   0.268   0.254   0.250   0.254   0.274   0.251   0.235   0.255   0.229   0.260   0.225   0.240   0.230   0.259   0.267   0.241   0.282   0.236   0.234   0.238   0.223   0.266   0.245   0.248   0.228   0.248   0.229   0.248   0.244   0.250   0.266   0.248
   321.00    0.248   0.231   0.256   0.262   0.244   0.238   0.251   0.232   0.248   0.267   0.244   0.256   0.221   0.254   0.234   0.226   0.239   0.248   0.275   0.226   0.249   0.273   0.287   0.264   0.243   0.277   0.242   0.256   0.259   0.237   0.268   0.265   0.260   0.236   0.224   0.248   0.226   0.249   0.242   0.242   0.229   0.243   0.261   0.261   0.234   0.249   0.237   0.266   0.265   0.237   0.248   0.250   0.274   0.277   0.217   0.234   0.247   0.259   0.237   0.265   0.263   0.257   0.245   0.248   0.232   0.252   0.229   0.242   0.221   0.255   0.252   0.249   0.233   0.247   0.235
   301.00    0.236   0.225   0.243   0.250   0.229   0.245   0.250   0.245   0.241   0.255   0.241   0.234   0.249   0.230   0.228   0.233   0.229   0.250   0.238   0.257   0.226   0.274   0.280   0.260   0.227   0.252   0.245   0.254   0.246   0.225   0.256   0.247   0.236   0.223   0.256   0.275   0.243   0.236   0.241   0.237   0.248   0.267   0.261   0.262   0.256   0.264   0.280   0.219   0.231   0.240   0.229   0.257   0.244   0.253   0.275   0.283   0.260   0.225   0.222   0.240   0.235   0.241   0.243   0.235   0.237   0.255   0.249   0.242   0.262   0.213   0.243   0.249   0.222   0.260   0.247
   281.00    0.260   0.226   0.260   0.266   0.215   0.237   0.261   0.228   0.247   0.261   0.228   0.237   0.235   0.255   0.251   0.245   0.245   0.249   0.252   0.247   0.245   0.238   0.268   0.242   0.264   0.236   0.245   0.242   0.250   0.271   0.241   0.242   0.261   0.238   0.268   0.272   0.248   0.275   0.253   0.247   0.236   0.257   0.225   0.234   0.250   0.254   0.250   0.254   0.249   0.247   0.252   0.224   0.254   0.237   0.242   0.255   0.243   0.249   0.246   0.264   0.229   0.246   0.247   0.236   0.264   0.259   0.248   0.272   0.265   0.270   0.252   0.221   0.247   0.271   0.230
   261.00    0.259   0.253   0.228   0.243   0.258   0.233   0.225   0.258   0.220   0.257   0.238   0.234   0.227   0.244   0.235   0.237   0.271   0.257   0.240   0.228   0.238   0.221   0.256   0.225   0.258   0.237   0.240   0.216   0.244   0.232   0.237   0.224   0.240   0.239   0.253   0.271   0.264   0.257   0.222   0.259   0.233   0.225   0.268   0.216   0.252   0.229   0.247   0.228   0.249   0.229   0.242   0.248   0.241   0.218   0.258   0.214   0.250   0.259   0.228   0.244   0.243   0.230   0.251   0.224   0.260   0.229   0.234   0.235   0.249   0.267   0.237   0.235   0.265   0.243   0.239
   241.00    0.239   0.253   0.242   0.236   0.238   0.241   0.231   0.267   0.243   0.254   0.251   0.216   0.254   0.272   0.251   0.248   0.272   0.232   0.249   0.215   0.242   0.257   0.245   0.251   0.239   0.233   0.268   0.243   0.277   0.224   0.256   0.239   0.240   0.250   0.285   0.238   0.260   0.219   0.246   0.243   0.228   0.248   0.250   0.252   0.237   0.249   0.223   0.252   0.249   0.251   0.263   0.247   0.223   0.244   0.261   0.268   0.254   0.225   0.243   0.241   0.238   0.265   0.241   0.240   0.246   0.260   0.264   0.265   0.245   0.249   0.218   0.244   0.231   0.253   0.264
   221.00    0.235   0.232   0.221   0.265   0.225   0.235   0.228   0.271   0.274   0.210   0.254   0.267   0.241   0.254   0.218   0.251   0.259   0.245   0.253   0.268   0.251   0.247   0.225   0.243   0.267   0.274   0.267   0.262   0.245   0.249   0.244   0.261   0.240   0.247   0.273   0.279   0.214   0.266   0.250   0.237   0.244   0.284   0.229   0.230   0.271   0.254   0.254   0.260   0.241   0.265   0.271   0.227   0.245   0.247   0.261   0.255   0.280   0.219   0.232   0.243   0.252   0.265   0.237   0.231   0.269   0.268   0.217   0.238   0.248   0.238   0.252   0.268   0.229   0.268   0.246
   201.00    0.259   0.266   0.235   0.253   0.259   0.216   0.250   0.275   0.253   0.255   0.269   0.254   0.219   0.261   0.233   0.256   0.218   0.247   0.257   0.246   0.246   0.259   0.238   0.234   0.241   0.241   0.243   0.247   0.218   0.232   0.232   0.250   0.235   0.231   0.235   0.266   0.275   0.222   0.259   0.260   0.251   0.266   0.270   0.260   0.243   0.276   0.251   0.224   0.228   0.248   0.253   0.241   0.249   0.241   0.245   0.244   0.260   0.261   0.246   0.266   0.223   0.249   0.224   0.237   0.240   0.240   0.256   0.242   0.241   0.245   0.228   0.243   0.254   0.255   0.234
   181.00    0.240   0.238   0.240   0.226   0.246   0.245   0.234   0.236   0.238   0.246   0.250   0.224   0.263   0.228   0.238   0.264   0.252   0.257   0.247   0.268   0.245   0.231   0.246   0.245   0.262   0.227   0.255   0.242   0.260   0.256   0.247   0.245   0.254   0.245   0.260   0.225   0.265   0.245   0.239   0.243   0.252   0.261   0.234   0.266   0.251   0.262   0.240   0.266   0.235   0.244   0.218   0.251   0.244   0.239   0.224   0.251   0.260   0.263   0.223   0.256   0.235   0.234   0.261   0.255   0.249   0.258   0.230   0.242   0.244   0.269   0.227   0.235   0.242   0.250   0.226
   161.00    0.233   0.250   0.224   0.230   0.245   0.260   0.234   0.251   0.255   0.253   0.222   0.239   0.252   0.238   0.234   0.267   0.259   0.215   0.254   0.259   0.241   0.258   0.251   0.225   0.262   0.223   0.252   0.252   0.260   0.247   0.236   0.260   0.213   0.253   0.223   0.256   0.240   0.256   0.226   0.267   0.232   0.265   0.263   0.257   0.242   0.245   0.241   0.262   0.277   0.250   0.269   0.219   0.252   0.219   0.223   0.238   0.257   0.231   0.250   0.260   0.224   0.258   0.224   0.256   0.244   0.218   0.258   0.283   0.290   0.234   0.243   0.246   0.231   0.240   0.241
   141.00    0.240   0.242   0.247   0.223   0.238   0.258   0.257   0.237   0.254   0.247   0.272   0.238   0.248   0.221   0.262   0.259   0.267   0.281   0.271   0.239   0.226   0.248   0.229   0.235   0.248   0.257   0.245   0.261   0.221   0.229   0.230   0.247   0.277   0.246   0.237   0.236   0.242   0.250   0.253   0.231   0.257   0.247   0.262   0.234   0.238   0.262   0.245   0.269   0.260   0.226   0.274   0.272   0.258   0.274   0.234   0.254   0.236   0.239   0.236   0.240   0.235   0.237   0.243   0.244   0.228   0.251   0.255   0.281   0.285   0.254   0.236   0.250   0.257   0.274   0.266
   121.00    0.243   0.221   0.235   0.254   0.222   0.240   0.241   0.243   0.215   0.238   0.263   0.280   0.277   0.273   0.234   0.244   0.240   0.242   0.272   0.217   0.240   0.262   0.224   0.248   0.240   0.233   0.242   0.256   0.265   0.253   0.254   0.276   0.287   0.254   0.261   0.273   0.231   0.259   0.267   0.220   0.231   0.272   0.280   0.249   0.214   0.233   0.235   0.249   0.224   0.241   0.251   0.269   0.282   0.259   0.224   0.243   0.227   0.265   0.286   0.272   0.225   0.237   0.254   0.246   0.230   0.237   0.255   0.251   0.250   0.261   0.279   0.233   0.247   0.256   0.259
   101.00    0.241   0.252   0.227   0.245   0.233   0.238   0.245   0.231   0.274   0.274   0.270   0.258   0.258   0.248   0.223   0.247   0.233   0.247   0.254   0.265   0.264   0.270   0.224   0.235   0.255   0.234   0.245   0.234   0.264   0.282   0.220   0.236   0.262   0.261   0.221   0.236   0.245   0.246   0.246   0.262   0.254   0.245   0.234   0.239   0.268   0.275   0.247   0.216   0.230   0.256   0.233   0.260   0.249   0.258   0.259   0.275   0.280   0.273   0.265   0.260   0.217   0.254   0.245   0.235   0.241   0.246   0.244   0.227   0.245   0.217   0.251   0.270   0.231   0.234   0.258
    81.00    0.253   0.257   0.246   0.258   0.276   0.248   0.270   0.257   0.242   0.243   0.261   0.235   0.234   0.241   0.241   0.247   0.238   0.241   0.234   0.253   0.235   0.258   0.251   0.217   0.251   0.236   0.231   0.260   0.227   0.266   0.251   0.222   0.246   0.228   0.254   0.256   0.266   0.230   0.256   0.234   0.233   0.252   0.263   0.278   0.267   0.260   0.225   0.262   0.280   0.258   0.239   0.224   0.263   0.239   0.233   0.254   0.246   0.251   0.226   0.262   0.276   0.250   0.223   0.231   0.233   0.229   0.244   0.266   0.233   0.244   0.250   0.257   0.224   0.256   0.217
    61.00    0.237   0.235   0.259   0.241   0.257   0.246   0.251   0.246   0.212   0.240   0.263   0.222   0.243   0.232   0.256   0.219   0.250   0.225   0.255   0.260   0.251   0.245   0.267   0.234   0.264   0.233   0.233   0.251   0.226   0.240   0.226   0.227   0.237   0.239   0.255   0.246   0.242   0.262   0.221   0.223   0.244   0.226   0.236   0.259   0.273   0.276   0.251   0.234   0.240   0.262   0.222   0.254   0.272   0.236   0.259   0.229   0.220   0.247   0.239   0.250   0.264   0.261   0.256   0.249   0.235   0.239   0.234   0.258   0.280   0.274   0.259   0.253   0.266   0.249   0.275
    41.00    0.261   0.262   0.238   0.238   0.244   0.244   0.256   0.227   0.254   0.274   0.270   0.238   0.252   0.243   0.267   0.270   0.217   0.267   0.275   0.228   0.245   0.246   0.236   0.230   0.241   0.223   0.244   0.215   0.237   0.234   0.244   0.240   0.273   0.269   0.224   0.243   0.250   0.236   0.260   0.243   0.274   0.239   0.278   0.275   0.254   0.244   0.268   0.234   0.241   0.239   0.244   0.235   0.263   0.229   0.265   0.250   0.229   0.253   0.243   0.274   0.263   0.252   0.226   0.226   0.252   0.239   0.226   0.229   0.256   0.251   0.230   0.240   0.227   0.259   0.258
    21.00    0.253   0.230   0.239   0.230   0.240   0.244   0.268   0.248   0.260   0.234   0.252   0.243   0.262   0.219   0.239   0.266   0.242   0.236   0.258   0.249   0.238   0.257   0.217   0.243   0.251   0.221   0.257   0.244   0.244   0.248   0.244   0.255   0.243   0.246   0.246   0.240   0.245   0.234   0.248   0.239   0.270   0.214   0.236   0.271   0.214   0.253   0.221   0.239   0.254   0.218   0.261   0.219   0.241   0.267   0.245   0.239   0.250   0.252   0.229   0.235   0.254   0.226   0.246   0.235   0.246   0.258   0.227   0.260   0.281   0.226   0.236   0.277   0.269   0.275   0.228
     1.00    0.247   0.246   0.245   0.233   0.260   0.264   0.263   0.238   0.256   0.234   0.251   0.234   0.239   0.241   0.261   0.264   0.265   0.229   0.234   0.239   0.237   0.233   0.247   0.247   0.231   0.242   0.255   0.235   0.240   0.261   0.236   0.250   0.258   0.232   0.257   0.247   0.263   0.230   0.242   0.236   0.238   0.260   0.264   0.236   0.258   0.260   0.263   0.234   0.255   0.264   0.244   0.261   0.231   0.251   0.231   0.260   0.264   0.238   0.234   0.257   0.242   0.240   0.241   0.235   0.232   0.235   0.248   0.257   0.248   0.259   0.262   0.263   0.260   0.261   0.264

   Height   Standard deviation at grid points for the v component:
   641.00    0.279   0.268   0.264   0.265   0.282   0.241   0.272   0.248   0.257   0.256   0.264   0.275   0.280   0.263   0.295   0.298   0.261   0.249   0.252   0.288   0.256   0.254   0.287   0.238   0.264   0.288   0.287   0.274   0.254   0.285   0.285   0.291   0.301   0.243   0.280   0.254   0.260   0.269   0.258   0.248   0.282   0.258   0.254   0.277   0.277   0.248   0.252   0.260   0.267   0.261   0.263   0.284   0.244   0.281   0.261   0.252   0.253   0.283   0.243   0.276   0.281   0.249   0.278   0.295   0.267   0.252   0.260   0.271   0.275   0.271   0.258   0.278   0.281   0.268   0.281
   621.00    0.273   0.263   0.277   0.273   0.264   0.290   0.274   0.262   0.260   0.247   0.282   0.273   0.299   0.293   0.244   0.285   0.260   0.288   0.266   0.258   0.260   0.296   0.276   0.260   0.272   0.251   0.288   0.263   0.275   0.268   0.272   0.269   0.249   0.261   0.270   0.249   0.260   0.238   0.260   0.253   0.275   0.256   0.295   0.283   0.258   0.280   0.293   0.271   0.258   0.255   0.263   0.273   0.272   0.278   0.241   0.259   0.262   0.270   0.284   0.278   0.256   0.251   0.257   0.291   0.248   0.289   0.271   0.270   0.256   0.261   0.267   0.252   0.270   0.257   0.276
   601.00    0.281   0.269   0.245   0.278   0.244   0.287   0.262   0.238   0.277   0.287   0.267   0.265   0.284   0.286   0.275   0.273   0.235   0.273   0.258   0.277   0.236   0.277   0.257   0.269   0.257   0.278   0.266   0.260   0.278   0.266   0.256   0.262   0.276   0.286   0.268   0.258   0.280   0.301   0.291   0.248   0.278   0.271   0.255   0.263   0.265   0.268   0.260   0.292   0.263   0.266   0.267   0.265   0.247   0.269   0.279   0.282   0.238   0.276   0.256   0.277   0.259   0.251   0.272   0.276   0.281   0.265   0.269   0.276   0.251   0.287   0.283   0.275   0.273   0.287   0.268
   581.00    0.283   0.271   0.263   0.291   0.271   0.266   0.269   0.282   0.280   0.265   0.276   0.302   0.275   0.271   0.242   0.268   0.287   0.273   0.268   0.285   0.258   0.281   0.270   0.259   0.254   0.283   0.269   0.250   0.257   0.260   0.260   0.262   0.259   0.278   0.254   0.287   0.292   0.268   0.266   0.275   0.259   0.267   0.243   0.254   0.273   0.245   0.264   0.286   0.242   0.245   0.267   0.249   0.280   0.280   0.258   0.254   0.282   0.300   0.237   0.275   0.247   0.268   0.292   0.253   0.269   0.243   0.257   0.263   0.259   0.258   0.266   0.244   0.280   0.295   0.246
   561.00    0.281   0.255   0.285   0.309   0.250   0.270   0.277   0.258   0.275   0.264   0.284   0.300   0.280   0.253   0.284   0.250   0.257   0.262   0.270   0.272   0.279   0.278   0.253   0.255   0.264   0.295   0.273   0.291   0.272   0.261   0.281   0.273   0.270   0.261   0.266   0.291   0.298   0.297   0.306   0.282   0.241   0.270   0.283   0.264   0.252   0.268   0.243   0.280   0.302   0.278   0.270   0.248   0.277   0.258   0.251   0.258   0.284   0.275   0.283   0.259   0.269   0.280   0.292   0.268   0.274   0.294   0.292   0.252   0.255   0.291   0.264   0.277   0.271   0.279   0.250
   541.00    0.274   0.271   0.294   0.295   0.276   0.260   0.251   0.279   0.276   0.243   0.278   0.275   0.266   0.262   0.281   0.278   0.283   0.265   0.289   0.247   0.272   0.245   0.274   0.247   0.245   0.259   0.258   0.262   0.285   0.250   0.258   0.270   0.253   0.258   0.268   0.280   0.293   0.296   0.308   0.252   0.294   0.296   0.292   0.235   0.263   0.263   0.269   0.262   0.293   0.246   0.275   0.295   0.312   0.270   0.260   0.262   0.261   0.253   0.283   0.239   0.274   0.237   0.274   0.260   0.271   0.264   0.285   0.235   0.267   0.267   0.290   0.236   0.281   0.264   0.241
   521.00    0.265   0.274   0.290   0.255   0.255   0.288   0.297   0.278   0.250   0.259   0.269   0.247   0.258   0.274   0.294   0.234   0.275   0.301   0.287   0.285   0.284   0.274   0.271   0.264   0.260   0.267   0.267   0.290   0.287   0.256   0.272   0.286   0.271   0.294   0.262   0.279   0.294   0.295   0.268   0.282   0.293   0.285   0.274   0.283   0.298   0.240   0.265   0.264   0.266   0.263   0.282   0.270   0.284   0.284   0.268   0.243   0.262   0.250   0.269   0.275   0.280   0.287   0.288   0.263   0.244   0.277   0.264   0.268   0.274   0.251   0.277   0.297   0.286   0.255   0.273
   501.00    0.286   0.275   0.272   0.267   0.291   0.250   0.272   0.268   0.244   0.260   0.285   0.280   0.258   0.301   0.270   0.302   0.294   0.277   0.254   0.252   0.264   0.248   0.268   0.246   0.263   0.269   0.274   0.271   0.265   0.270   0.254   0.269   0.246   0.271   0.299   0.309   0.279   0.269   0.272   0.298   0.270   0.284   0.271   0.300   0.272   0.277   0.260   0.252   0.246   0.265   0.281   0.273   0.273   0.245   0.253   0.268   0.278   0.267   0.263   0.265   0.261   0.265   0.270   0.284   0.274   0.273   0.250   0.268   0.268   0.279   0.269   0.300   0.294   0.265   0.257
   481.00    0.272   0.270   0.268   0.277   0.274   0.264   0.258   0.247   0.277   0.255   0.271   0.268   0.281   0.300   0.305   0.291   0.285   0.258   0.276   0.252   0.263   0.286   0.266   0.293   0.276   0.292   0.260   0.271   0.259   0.265   0.249   0.290   0.253   0.277   0.282   0.270   0.281   0.257   0.276   0.293   0.245   0.271   0.249   0.292   0.254   0.242   0.254   0.259   0.258   0.279   0.269   0.279   0.246   0.290   0.298   0.299   0.270   0.280   0.254   0.291   0.236   0.274   0.266   0.287   0.245   0.252   0.251   0.262   0.275   0.291   0.246   0.289   0.271   0.248   0.260
   461.00    0.278   0.244   0.257   0.257   0.260   0.254   0.255   0.267   0.281   0.257   0.277   0.293   0.235   0.260   0.263   0.266   0.263   0.257   0.246   0.259   0.279   0.259   0.259   0.273   0.251   0.275   0.260   0.272   0.252   0.255   0.276   0.293   0.254   0.273   0.269   0.259   0.270   0.248   0.273   0.288   0.265   0.268   0.270   0.283   0.258   0.282   0.270   0.278   0.277   0.242   0.266   0.248   0.266   0.252   0.268   0.261   0.271   0.288   0.263   0.266   0.268   0.289   0.279   0.253   0.251   0.281   0.243   0.269   0.286   0.276   0.294   0.311   0.263   0.280   0.265
   441.00    0.263   0.263   0.293   0.281   0.291   0.307   0.237   0.276   0.267   0.264   0.265   0.282   0.277   0.274   0.288   0.282   0.251   0.260   0.280   0.260   0.247   0.275   0.237   0.265   0.258   0.269   0.297   0.299   0.292   0.273   0.252   0.268   0.285   0.263   0.238   0.267   0.292   0.255   0.261   0.243   0.249   0.269   0.251   0.283   0.286   0.259   0.268   0.298   0.245   0.286   0.253   0.274   0.266   0.274   0.282   0.283   0.263   0.272   0.292   0.251   0.283   0.259   0.253   0.261   0.291   0.299   0.292   0.254   0.257   0.249   0.270   0.291   0.279   0.269   0.253
   421.00    0.275   0.259   0.272   0.279   0.264   0.293   0.277   0.258   0.270   0.248   0.288   0.249   0.265   0.240   0.256   0.274   0.280   0.289   0.256   0.267   0.278   0.283   0.272   0.266   0.276   0.251   0.287   0.267   0.282   0.256   0.272   0.255   0.277   0.243   0.268   0.254   0.272   0.269   0.243   0.265   0.253   0.281   0.281   0.247   0.272   0.239   0.271   0.269   0.259   0.284   0.254   0.283   0.251   0.279   0.258   0.274   0.275   0.285   0.279   0.302   0.239   0.254   0.256   0.269   0.257   0.270   0.258   0.280   0.288   0.290   0.256   0.252   0.257   0.272   0.271
   401.00    0.274   0.262   0.288   0.291   0.294   0.254   0.259   0.267   0.274   0.278   0.252   0.259   0.263   0.258   0.261   0.258   0.246   0.274   0.273   0.280   0.261   0.266   0.276   0.247   0.266   0.280   0.253   0.246   0.276   0.258   0.281   0.280   0.286   0.260   0.290   0.279   0.292   0.294   0.266   0.246   0.269   0.285   0.276   0.283   0.266   0.302   0.311   0.256   0.293   0.242   0.283   0.296   0.261   0.260   0.256   0.280   0.284   0.237   0.260   0.274   0.273   0.292   0.264   0.275   0.260   0.273   0.261   0.239   0.262   0.253   0.281   0.257   0.277   0.236   0.266
   381.00    0.282   0.264   0.249   0.277   0.286   0.247   0.272   0.259   0.265   0.284   0.242   0.280   0.288   0.288   0.257   0.291   0.252   0.294   0.290   0.271   0.242   0.266   0.270   0.292   0.250   0.246   0.246   0.281   0.268   0.267   0.269   0.260   0.254   0.274   0.277   0.244   0.266   0.279   0.266   0.276   0.286   0.251   0.268   0.268   0.275   0.283   0.298   0.289   0.260   0.273   0.259   0.286   0.245   0.285   0.288   0.276   0.281   0.297   0.309   0.239   0.252   0.261   0.261   0.248   0.287   0.295   0.271   0.285   0.271   0.277   0.236   0.255   0.270   0.286   0.274
   361.00    0.270   0.260   0.271   0.272   0.275   0.257   0.272   0.259   0.258   0.269   0.281   0.270   0.275   0.273   0.260   0.291   0.259   0.265   0.249   0.276   0.287   0.281   0.269   0.254   0.265   0.271   0.262   0.268   0.285   0.275   0.261   0.270   0.247   0.250   0.268   0.275   0.284   0.293   0.256   0.293   0.275   0.261   0.268   0.256   0.288   0.247   0.244   0.270   0.277   0.264   0.271   0.288   0.275   0.250   0.273   0.257   0.267   0.277   0.300   0.294   0.263   0.267   0.242   0.252   0.251   0.273   0.263   0.264   0.241   0.288   0.273   0.283   0.272   0.246   0.274
   341.00    0.250   0.272   0.252   0.259   0.256   0.251   0.260   0.268   0.272   0.277   0.282   0.246   0.257   0.250   0.269   0.265   0.275   0.267   0.279   0.292   0.237   0.283   0.287   0.262   0.261   0.259   0.267   0.301   0.240   0.287   0.283   0.273   0.244   0.273   0.281   0.255   0.265   0.267   0.250   0.251   0.257   0.259   0.280   0.278   0.288   0.271   0.285   0.269   0.272   0.240   0.277   0.301   0.266   0.270   0.243   0.278   0.236   0.265   0.274   0.290   0.261   0.267   0.276   0.292   0.283   0.265   0.272   0.246   0.287   0.303   0.283   0.299   0.247   0.293   0.299
   321.00    0.262   0.284   0.246   0.262   0.254   0.262   0.269   0.243   0.270   0.260   0.262   0.267   0.256   0.257   0.270   0.274   0.262   0.239   0.274   0.292   0.295   0.286   0.288   0.258   0.278   0.240   0.264   0.296   0.284   0.251   0.282   0.301   0.251   0.278   0.249   0.259   0.274   0.241   0.271   0.266   0.282   0.274   0.259   0.253   0.260   0.256   0.263   0.290   0.275   0.281   0.280   0.284   0.299   0.252   0.267   0.260   0.270   0.287   0.290   0.248   0.249   0.265   0.266   0.271   0.240   0.287   0.302   0.257   0.277   0.275   0.275   0.252   0.287   0.300   0.277
   301.00    0.251   0.262   0.263   0.262   0.287   0.241   0.265   0.265   0.293   0.286   0.244   0.279   0.269   0.242   0.281   0.290   0.268   0.267   0.279   0.255   0.270   0.258   0.271   0.256   0.283   0.293   0.243   0.282   0.248   0.263   0.276   0.290   0.268   0.263   0.267   0.268   0.266   0.258   0.290   0.269   0.264   0.256   0.267   0.252   0.260   0.255   0.285   0.267   0.258   0.247   0.256   0.273   0.261   0.278   0.261   0.269   0.266   0.259   0.262   0.283   0.262   0.269   0.264   0.244   0.270   0.266   0.278   0.256   0.269   0.260   0.270   0.276   0.251   0.286   0.272
   281.00    0.261   0.292   0.244   0.252   0.268   0.256   0.288   0.234   0.278   0.255   0.257   0.270   0.250   0.282   0.297   0.281   0.264   0.238   0.258   0.266   0.248   0.267   0.272   0.273   0.295   0.304   0.296   0.257   0.256   0.278   0.248   0.275   0.274   0.277   0.289   0.264   0.268   0.258   0.270   0.264   0.243   0.266   0.283   0.255   0.288   0.297   0.280   0.292   0.285   0.246   0.284   0.270   0.268   0.274   0.272   0.251   0.269   0.280   0.236   0.267   0.251   0.245   0.258   0.250   0.270   0.257   0.286   0.279   0.274   0.269   0.250   0.276   0.268   0.275   0.268
   261.00    0.258   0.259   0.265   0.258   0.266   0.268   0.267   0.290   0.284   0.266   0.278   0.262   0.265   0.249   0.250   0.265   0.247   0.288   0.287   0.263   0.260   0.258   0.279   0.302   0.296   0.290   0.280   0.241   0.254   0.254   0.280   0.274   0.253   0.264   0.285   0.266   0.284   0.260   0.257   0.270   0.270   0.265   0.272   0.266   0.253   0.297   0.259   0.272   0.254   0.281   0.265   0.252   0.270   0.262   0.284   0.286   0.262   0.261   0.274   0.286   0.259   0.278   0.262   0.257   0.273   0.267   0.266   0.264   0.253   0.253   0.294   0.283   0.239   0.274   0.262
   241.00    0.262   0.257   0.271   0.270   0.279   0.245   0.249   0.262   0.281   0.241   0.268   0.273   0.263   0.265   0.249   0.260   0.274   0.244   0.259   0.285   0.307   0.280   0.299   0.295   0.269   0.258   0.266   0.287   0.302   0.240   0.281   0.295   0.279   0.273   0.294   0.257   0.246   0.253   0.281   0.270   0.295   0.254   0.271   0.254   0.282   0.291   0.268   0.286   0.258   0.262   0.280   0.262   0.271   0.257   0.249   0.279   0.247   0.283   0.253   0.272   0.241   0.259   0.262   0.277   0.248   0.266   0.266   0.257   0.243   0.254   0.260   0.282   0.283   0.285   0.246
   221.00    0.279   0.262   0.255   0.268   0.275   0.276   0.295   0.292   0.252   0.266   0.279   0.304   0.239   0.264   0.256   0.267   0.271   0.258   0.274   0.288   0.291   0.286   0.291   0.272   0.270   0.247   0.277   0.269   0.261   0.264   0.292   0.282   0.240   0.272   0.297   0.298   0.272   0.286   0.241   0.263   0.273   0.284   0.279   0.262   0.281   0.299   0.259   0.265   0.267   0.260   0.253   0.270   0.292   0.286   0.285   0.247   0.275   0.266   0.271   0.265   0.262   0.271   0.264   0.243   0.268   0.277   0.268   0.283   0.276   0.294   0.275   0.273   0.268   0.261   0.283
   201.00    0.251   0.283   0.253   0.251   0.284   0.246   0.256   0.280   0.268   0.277   0.251   0.267   0.260   0.275   0.243   0.287   0.255   0.279   0.300   0.276   0.269   0.271   0.269   0.269   0.283   0.287   0.270   0.284   0.261   0.291   0.301   0.299   0.272   0.264   0.260   0.264   0.253   0.292   0.284   0.291   0.283   0.286   0.243   0.263   0.282   0.272   0.255   0.246   0.268   0.260   0.267   0.272   0.245   0.274   0.242   0.272   0.261   0.288   0.267   0.273   0.260   0.243   0.255   0.265   0.244   0.263   0.266   0.243   0.258   0.250   0.268   0.266   0.267   0.251   0.269
   181.00    0.276   0.282   0.286   0.239   0.251   0.279   0.246   0.280   0.266   0.273   0.296   0.255   0.284   0.275   0.284   0.267   0.263   0.267   0.290   0.269   0.269   0.258   0.260   0.255   0.269   0.285   0.273   0.272   0.289   0.280   0.287   0.274   0.255   0.279   0.284   0.269   0.266   0.267   0.262   0.281   0.273   0.260   0.272   0.290   0.257   0.263   0.254   0.268   0.281   0.277   0.257   0.266   0.248   0.288   0.297   0.255   0.263   0.264   0.264   0.281   0.287   0.254   0.279   0.291   0.264   0.267   0.270   0.279   0.245   0.273   0.281   0.253   0.274   0.266   0.240
   161.00    0.286   0.290   0.272   0.285   0.283   0.255   0.267   0.276   0.277   0.245   0.255   0.252   0.259   0.274   0.242   0.257   0.274   0.260   0.269   0.257   0.274   0.285   0.258   0.258   0.265   0.263   0.261   0.281   0.239   0.260   0.276   0.267   0.273   0.262   0.245   0.273   0.274   0.254   0.288   0.273   0.260   0.265   0.255   0.293   0.277   0.266   0.273   0.262   0.268   0.289   0.245   0.271   0.278   0.257   0.264   0.244   0.258   0.271   0.292   0.259   0.266   0.266   0.260   0.277   0.254   0.278   0.288   0.286   0.254   0.277   0.245   0.273   0.239   0.254   0.289
   141.00    0.280   0.263   0.281   0.299   0.248   0.277   0.278   0.283   0.256   0.266   0.267   0.294   0.297   0.291   0.278   0.250   0.274   0.260   0.256   0.254   0.266   0.296   0.243   0.256   0.271   0.254   0.278   0.294   0.260   0.273   0.238   0.281   0.292   0.252   0.273   0.276   0.270   0.258   0.282   0.251   0.271   0.255   0.253   0.287   0.263   0.274   0.276   0.257   0.271   0.239   0.255   0.279   0.272   0.258   0.260   0.267   0.289   0.261   0.269   0.261   0.290   0.276   0.255   0.251   0.265   0.253   0.271   0.257   0.282   0.261   0.244   0.275   0.292   0.258   0.263
   121.00    0.272   0.265   0.293   0.267   0.257   0.261   0.264   0.255   0.280   0.249   0.271   0.278   0.282   0.281   0.267   0.275   0.262   0.259   0.250   0.260   0.254   0.274   0.291   0.267   0.276   0.250   0.267   0.274   0.242   0.271   0.289   0.306   0.283   0.258   0.280   0.257   0.268   0.260   0.270   0.272   0.265   0.268   0.299   0.285   0.299   0.234   0.278   0.245   0.280   0.307   0.247   0.278   0.255   0.249   0.268   0.274   0.273   0.286   0.253   0.265   0.258   0.263   0.259   0.262   0.258   0.265   0.259   0.247   0.267   0.258   0.271   0.245   0.277   0.266   0.274
   101.00    0.265   0.264   0.292   0.243   0.273   0.264   0.291   0.291   0.273   0.270   0.269   0.285   0.245   0.247   0.290   0.268   0.260   0.268   0.280   0.264   0.257   0.257   0.267   0.280   0.252   0.274   0.260   0.264   0.257   0.290   0.301   0.303   0.246   0.257   0.282   0.296   0.305   0.246   0.261   0.256   0.264   0.271   0.280   0.262   0.298   0.305   0.281   0.272   0.300   0.301   0.292   0.257   0.273   0.289   0.289   0.239   0.274   0.282   0.277   0.250   0.286   0.255   0.251   0.275   0.251   0.254   0.258   0.286   0.266   0.245   0.272   0.262   0.259   0.273   0.251
    81.00    0.281   0.265   0.240   0.260   0.284   0.247   0.278   0.300   0.247   0.266   0.266   0.263   0.276   0.295   0.242   0.287   0.268   0.261   0.282   0.255   0.280   0.245   0.288   0.264   0.271   0.262   0.272   0.251   0.274   0.254   0.276   0.266   0.254   0.280   0.277   0.278   0.287   0.256   0.249   0.260   0.251   0.272   0.285   0.252   0.262   0.282   0.276   0.247   0.262   0.266   0.297   0.266   0.281   0.276   0.260   0.262   0.286   0.251   0.250   0.260   0.246   0.249   0.278   0.265   0.294   0.291   0.252   0.263   0.239   0.271   0.273   0.255   0.246   0.268   0.268
    61.00    0.267   0.246   0.283   0.257   0.289   0.278   0.251   0.266   0.286   0.249   0.275   0.297   0.255   0.260   0.285   0.240   0.280   0.271   0.293   0.239   0.288   0.290   0.285   0.271   0.283   0.281   0.243   0.269   0.244   0.281   0.266   0.241   0.273   0.267   0.269   0.284   0.271   0.253   0.272   0.294   0.256   0.267   0.279   0.257   0.276   0.247   0.252   0.276   0.254   0.262   0.258   0.275   0.298   0.245   0.251   0.260   0.267   0.271   0.272   0.276   0.250   0.257   0.262   0.254   0.274   0.265   0.281   0.294   0.294   0.287   0.263   0.249   0.282   0.278   0.268
    41.00    0.258   0.263   0.262   0.267   0.269   0.254   0.266   0.265   0.286   0.262   0.264   0.276   0.263   0.251   0.278   0.297   0.244   0.248   0.279   0.295   0.265   0.272   0.274   0.279   0.269   0.271   0.254   0.252   0.278   0.300   0.296   0.274   0.296   0.267   0.256   0.274   0.263   0.276   0.279   0.281   0.259   0.290   0.237   0.261   0.253   0.277   0.264   0.261   0.275   0.269   0.269   0.259   0.266   0.259   0.260   0.264   0.259   0.255   0.288   0.250   0.260   0.278   0.244   0.272   0.249   0.264   0.299   0.288   0.297   0.300   0.249   0.268   0.249   0.262   0.262
    21.00    0.261   0.254   0.254   0.256   0.244   0.258   0.258   0.272   0.287   0.297   0.240   0.258   0.274   0.271   0.252   0.267   0.277   0.282   0.269   0.259   0.256   0.277   0.245   0.275   0.283   0.274   0.277   0.265   0.291   0.288   0.280   0.244   0.266   0.275   0.301   0.236   0.274   0.251   0.284   0.266   0.260   0.263   0.295   0.294   0.263   0.284   0.273   0.242   0.271   0.250   0.267   0.247   0.273   0.249   0.291   0.265   0.274   0.244   0.277   0.294   0.269   0.260   0.291   0.276   0.273   0.265   0.290   0.275   0.257   0.268   0.287   0.252   0.275   0.249   0.279
     1.00    0.270   0.254   0.257   0.261   0.255   0.283   0.288   0.288   0.258   0.261   0.267   0.279   0.284   0.264   0.280   0.268   0.268   0.284   0.269   0.270   0.260   0.280   0.266   0.263   0.277   0.256   0.278   0.253   0.278   0.284   0.285   0.278   0.256   0.272   0.270   0.285   0.283   0.285   0.253   0.269   0.263   0.261   0.271   0.276   0.255   0.276   0.286   0.282   0.267   0.279   0.272   0.271   0.277   0.257   0.260   0.277   0.254   0.266   0.281   0.283   0.257   0.283   0.285   0.273   0.286   0.259   0.283   0.254   0.263   0.273   0.254   0.276   0.254   0.261   0.256

   Height   Standard deviation at grid points for the w component:
   641.00    0.223   0.221   0.217   0.216   0.217   0.238   0.209   0.237   0.239   0.222   0.219   0.216   0.218   0.220   0.226   0.223   0.228   0.224   0.228   0.219   0.215   0.216   0.226   0.225   0.212   0.226   0.224   0.229   0.240   0.220   0.234   0.222   0.224   0.213   0.224   0.236   0.229   0.216   0.224   0.225   0.229   0.230   0.229   0.219   0.229   0.217   0.224   0.235   0.219   0.224   0.235   0.228   0.206   0.216   0.215   0.226   0.243   0.222   0.213   0.215   0.235   0.206   0.214   0.238   0.226   0.220   0.215   0.222   0.219   0.225   0.225   0.214   0.222   0.226   0.221
   621.00    0.226   0.208   0.223   0.220   0.230   0.239   0.227   0.205   0.217   0.226   0.207   0.219   0.208   0.214   0.216   0.228   0.205   0.226   0.216   0.217   0.223   0.207   0.222   0.230   0.219   0.221   0.229   0.243   0.231   0.204   0.215   0.225   0.221   0.225   0.201   0.219   0.227   0.214   0.211   0.209   0.227   0.214   0.211   0.209   0.219   0.219   0.239   0.231   0.214   0.229   0.224   0.212   0.232   0.236   0.202   0.218   0.225   0.230   0.240   0.204   0.230   0.218   0.212   0.223   0.230   0.228   0.223   0.237   0.200   0.221   0.216   0.234   0.229   0.209   0.224
   601.00    0.225   0.218   0.225   0.217   0.213   0.220   0.211   0.220   0.213   0.222   0.224   0.221   0.215   0.230   0.223   0.225   0.228   0.220   0.225   0.232   0.231   0.235   0.212   0.220   0.230   0.204   0.222   0.229   0.219   0.234   0.217   0.233   0.205   0.220   0.218   0.230   0.210   0.223   0.236   0.234   0.235   0.234   0.225   0.212   0.238   0.217   0.226   0.242   0.216   0.231   0.220   0.209   0.234   0.237   0.246   0.244   0.220   0.210   0.231   0.237   0.204   0.220   0.222   0.219   0.211   0.223   0.217   0.241   0.238   0.235   0.242   0.208   0.218   0.229   0.217
   581.00    0.222   0.221   0.210   0.218   0.240   0.225   0.226   0.213   0.229   0.229   0.204   0.224   0.242   0.219   0.206   0.222   0.229   0.214   0.222   0.216   0.213   0.216   0.227   0.232   0.210   0.243   0.243   0.205   0.211   0.220   0.205   0.211   0.222   0.210   0.233   0.222   0.231   0.234   0.220   0.226   0.218   0.220   0.220   0.216   0.223   0.235   0.209   0.233   0.213   0.223   0.210   0.226   0.219   0.219   0.221   0.233   0.212   0.213   0.217   0.230   0.239   0.227   0.229   0.222   0.231   0.233   0.210   0.217   0.235   0.204   0.230   0.246   0.245   0.210   0.208
   561.00    0.226   0.214   0.225   0.207   0.222   0.225   0.219   0.247   0.217   0.213   0.225   0.222   0.218   0.217   0.236   0.237   0.231   0.207   0.224   0.223   0.206   0.225   0.233   0.229   0.219   0.235   0.238   0.228   0.225   0.216   0.232   0.220   0.240   0.242   0.232   0.216   0.222   0.216   0.222   0.217   0.232   0.226   0.239   0.250   0.204   0.220   0.230   0.220   0.207   0.223   0.230   0.210   0.214   0.222   0.226   0.222   0.212   0.227   0.238   0.233   0.230   0.208   0.228   0.219   0.231   0.224   0.235   0.234   0.217   0.234   0.232   0.238   0.219   0.212   0.216
   541.00    0.216   0.208   0.229   0.217   0.235   0.203   0.230   0.244   0.247   0.230   0.243   0.211   0.233   0.227   0.207   0.222   0.225   0.221   0.234   0.245   0.240   0.231   0.227   0.223   0.216   0.245   0.222   0.222   0.245   0.220   0.212   0.220   0.225   0.227   0.224   0.239   0.242   0.217   0.228   0.223   0.211   0.226   0.240   0.241   0.226   0.224   0.219   0.228   0.238   0.228   0.232   0.223   0.229   0.225   0.223   0.205   0.218   0.219   0.224   0.216   0.207   0.209   0.214   0.221   0.218   0.228   0.237   0.217   0.219   0.221   0.215   0.216   0.222   0.218   0.239
   521.00    0.215   0.219   0.239   0.220   0.224   0.238   0.225   0.226   0.223   0.216   0.234   0.212   0.209   0.235   0.240   0.208   0.213   0.237   0.203   0.217   0.237   0.246   0.211   0.217   0.221   0.242   0.232   0.229   0.230   0.244   0.210   0.214   0.232   0.208   0.218   0.221   0.235   0.223   0.234   0.235   0.218   0.227   0.231   0.235   0.213   0.219   0.212   0.225   0.227   0.245   0.205   0.215   0.210   0.217   0.219   0.235   0.222   0.233   0.204   0.235   0.228   0.237   0.221   0.225   0.239   0.229   0.222   0.208   0.218   0.233   0.218   0.227   0.212   0.213   0.221
   501.00    0.213   0.225   0.218   0.213   0.227   0.223   0.217   0.223   0.215   0.221   0.214   0.235   0.210   0.239   0.243   0.240   0.216   0.227   0.239   0.223   0.220   0.236   0.214   0.228   0.234   0.246   0.211   0.230   0.209   0.218   0.235   0.212   0.221   0.226   0.240   0.207   0.228   0.232   0.229   0.234   0.222   0.202   0.229   0.234   0.219   0.228   0.221   0.224   0.217   0.229   0.227   0.208   0.228   0.218   0.222   0.220   0.224   0.205   0.236   0.203   0.230   0.221   0.211   0.222   0.233   0.241   0.239   0.204   0.224   0.204   0.228   0.217   0.212   0.227   0.216
   481.00    0.230   0.224   0.215   0.212   0.226   0.218   0.228   0.243   0.204   0.212   0.220   0.213   0.236   0.208   0.214   0.216   0.218   0.224   0.216   0.221   0.213   0.220   0.215   0.223   0.238   0.234   0.242   0.203   0.220   0.217   0.211   0.219   0.237   0.209   0.224   0.234   0.229   0.207   0.229   0.235   0.210   0.224   0.227   0.229   0.207   0.217   0.219   0.228   0.218   0.210   0.223   0.219   0.216   0.214   0.222   0.231   0.225   0.236   0.207   0.216   0.231   0.238   0.211   0.220   0.216   0.209   0.219   0.222   0.237   0.227   0.236   0.213   0.238   0.233   0.221
   461.00    0.212   0.224   0.232   0.218   0.222   0.203   0.232   0.234   0.237   0.201   0.212   0.230   0.204   0.217   0.232   0.231   0.232   0.225   0.234   0.228   0.236   0.205   0.224   0.217   0.214   0.209   0.219   0.228   0.231   0.241   0.208   0.213   0.213   0.226   0.226   0.221   0.223   0.239   0.203   0.227   0.204   0.228   0.235   0.221   0.214   0.220   0.224   0.214   0.217   0.230   0.244   0.202   0.227   0.213   0.218   0.227   0.213   0.233   0.222   0.242   0.218   0.219   0.221   0.203   0.219   0.207   0.228   0.218   0.237   0.219   0.224   0.230   0.220   0.219   0.216
   441.00    0.215   0.219   0.220   0.217   0.218   0.233   0.238   0.232   0.223   0.237   0.232   0.240   0.238   0.229   0.225   0.211   0.239   0.242   0.234   0.207   0.222   0.218   0.234   0.229   0.218   0.220   0.227   0.229   0.206   0.222   0.229   0.213   0.224   0.227   0.209   0.229   0.223   0.211   0.218   0.221   0.221   0.217   0.217   0.221   0.241   0.236   0.235   0.209   0.208   0.231   0.232   0.228   0.218   0.212   0.228   0.239   0.224   0.227   0.223   0.231   0.246   0.229   0.208   0.228   0.230   0.229   0.237   0.205   0.231   0.202   0.219   0.216   0.225   0.222   0.205
   421.00    0.222   0.224   0.230   0.210   0.215   0.224   0.221   0.227   0.220   0.223   0.215   0.231   0.238   0.201   0.222   0.216   0.215   0.219   0.231   0.229   0.211   0.223   0.232   0.219   0.211   0.231   0.205   0.211   0.227   0.219   0.211   0.220   0.227   0.206   0.215   0.221   0.209   0.231   0.239   0.232   0.224   0.242   0.211   0.214   0.210   0.213   0.221   0.222   0.215   0.233   0.233   0.200   0.217   0.215   0.222   0.219   0.216   0.216   0.224   0.213   0.231   0.230   0.228   0.237   0.206   0.222   0.209   0.238   0.243   0.238   0.241   0.223   0.230   0.207   0.230
   401.00    0.215   0.220   0.226   0.225   0.229   0.221   0.212   0.222   0.229   0.219   0.232   0.218   0.220   0.217   0.227   0.218   0.222   0.227   0.216   0.224   0.213   0.229   0.205   0.231   0.212   0.231   0.227   0.217   0.224   0.235   0.213   0.218   0.207   0.229   0.230   0.227   0.225   0.245   0.244   0.212   0.206   0.215   0.225   0.208   0.222   0.210   0.220   0.232   0.223   0.242   0.232   0.243   0.233   0.215   0.220   0.217   0.227   0.235   0.231   0.232   0.220   0.207   0.237   0.242   0.243   0.227   0.217   0.240   0.236   0.238   0.237   0.219   0.224   0.240   0.242
   381.00    0.215   0.235   0.225   0.216   0.217   0.216   0.215   0.204   0.216   0.223   0.228   0.210   0.222   0.220   0.226   0.233   0.237   0.217   0.216   0.207   0.225   0.216   0.233   0.219   0.219   0.209   0.209   0.215   0.206   0.229   0.206   0.210   0.227   0.219   0.205   0.216   0.212   0.229   0.245   0.247   0.212   0.240   0.241   0.215   0.214   0.237   0.224   0.228   0.228   0.217   0.221   0.230   0.220   0.237   0.224   0.205   0.211   0.239   0.207   0.235   0.206   0.239   0.248   0.235   0.231   0.209   0.233   0.223   0.219   0.219   0.229   0.236   0.220   0.229   0.237
   361.00    0.220   0.224   0.201   0.225   0.218   0.213   0.238   0.221   0.226   0.229   0.201   0.230   0.217   0.244   0.204   0.235   0.215   0.209   0.233   0.203   0.216   0.224   0.230   0.233   0.225   0.235   0.218   0.238   0.206   0.227   0.241   0.235   0.231   0.219   0.241   0.230   0.229   0.227   0.232   0.238   0.209   0.226   0.224   0.222   0.220   0.217   0.231   0.217   0.220   0.209   0.225   0.218   0.215   0.216   0.228   0.238   0.210   0.232   0.221   0.232   0.233   0.219   0.229   0.220   0.217   0.218   0.225   0.240   0.207   0.225   0.237   0.222   0.233   0.203   0.217
   341.00    0.221   0.223   0.244   0.244   0.223   0.223   0.215   0.221   0.217   0.228   0.240   0.245   0.218   0.237   0.236   0.242   0.234   0.229   0.212   0.236   0.233   0.229   0.218   0.227   0.223   0.237   0.207   0.222   0.223   0.219   0.230   0.243   0.211   0.206   0.221   0.236   0.232   0.223   0.231   0.234   0.243   0.236   0.232   0.218   0.230   0.216   0.213   0.221   0.226   0.222   0.211   0.225   0.231   0.223   0.220   0.229   0.212   0.228   0.223   0.215   0.223   0.234   0.220   0.215   0.212   0.220   0.220   0.213   0.235   0.237   0.212   0.225   0.223   0.231   0.238
   321.00    0.236   0.203   0.220   0.225   0.214   0.217   0.210   0.214   0.208   0.222   0.239   0.236   0.224   0.216   0.233   0.246   0.208   0.209   0.223   0.226   0.219   0.222   0.222   0.225   0.202   0.218   0.223   0.222   0.207   0.220   0.216   0.229   0.230   0.231   0.232   0.213   0.218   0.223   0.226   0.219   0.218   0.226   0.220   0.217   0.232   0.236   0.214   0.236   0.224   0.221   0.237   0.234   0.217   0.213   0.217   0.223   0.237   0.233   0.214   0.209   0.234   0.240   0.216   0.226   0.209   0.211   0.227   0.222   0.242   0.220   0.241   0.221   0.210   0.238   0.227
   301.00    0.231   0.235   0.222   0.214   0.209   0.227   0.224   0.223   0.230   0.225   0.227   0.226   0.204   0.223   0.231   0.231   0.218   0.220   0.235   0.222   0.230   0.226   0.212   0.218   0.228   0.233   0.207   0.213   0.209   0.217   0.230   0.232   0.231   0.235   0.204   0.221   0.224   0.244   0.215   0.220   0.245   0.234   0.225   0.230   0.225   0.223   0.214   0.222   0.222   0.217   0.236   0.215   0.224   0.224   0.208   0.212   0.216   0.214   0.214   0.230   0.249   0.250   0.228   0.208   0.226   0.219   0.234   0.232   0.235   0.209   0.234   0.217   0.239   0.222   0.235
   281.00    0.232   0.219   0.210   0.222   0.216   0.231   0.228   0.216   0.223   0.240   0.240   0.208   0.223   0.234   0.202   0.218   0.213   0.237   0.235   0.220   0.221   0.215   0.232   0.240   0.231   0.209   0.217   0.230   0.206   0.234   0.224   0.222   0.229   0.241   0.241   0.212   0.221   0.224   0.220   0.213   0.239   0.238   0.212   0.213   0.215   0.227   0.225   0.220   0.201   0.224   0.206   0.226   0.243   0.210   0.236   0.237   0.213   0.220   0.217   0.211   0.242   0.252   0.228   0.234   0.223   0.247   0.234   0.211   0.229   0.208   0.228   0.218   0.213   0.210   0.225
   261.00    0.221   0.217   0.222   0.237   0.203   0.222   0.216   0.219   0.222   0.237   0.224   0.226   0.210   0.207   0.215   0.225   0.213   0.213   0.221   0.222   0.220   0.215   0.221   0.225   0.227   0.229   0.227   0.239   0.228   0.221   0.231   0.220   0.241   0.212   0.226   0.216   0.206   0.223   0.229   0.207   0.224   0.222   0.219   0.208   0.236   0.243   0.235   0.219   0.248   0.244   0.224   0.218   0.233   0.217   0.241   0.217   0.222   0.216   0.222   0.223   0.222   0.247   0.239   0.239   0.227   0.233   0.223   0.231   0.218   0.240   0.219   0.238   0.239   0.217   0.224
   241.00    0.219   0.217   0.210   0.224   0.226   0.236   0.227   0.216   0.208   0.231   0.211   0.218   0.211   0.222   0.231   0.225   0.238   0.221   0.209   0.225   0.210   0.214   0.217   0.229   0.228   0.224   0.233   0.242   0.219   0.224   0.233   0.206   0.237   0.203   0.220   0.214   0.228   0.224   0.211   0.221   0.210   0.220   0.234   0.228   0.242   0.247   0.229   0.226   0.244   0.239   0.213   0.240   0.236   0.236   0.217   0.217   0.219   0.209   0.222   0.212   0.221   0.227   0.229   0.221   0.218   0.211   0.228   0.224   0.218   0.222   0.232   0.220   0.234   0.221   0.214
   221.00    0.213   0.213   0.224   0.246   0.200   0.225   0.226   0.216   0.241   0.232   0.245   0.206   0.241   0.244   0.213   0.228   0.223   0.230   0.241   0.236   0.243   0.202   0.226   0.229   0.237   0.216   0.228   0.234   0.217   0.243   0.201   0.212   0.211   0.225   0.231   0.214   0.219   0.228   0.208   0.231   0.219   0.208   0.222   0.227   0.212   0.231   0.226   0.213   0.228   0.230   0.207   0.219   0.240   0.220   0.231   0.236   0.217   0.217   0.218   0.213   0.231   0.220   0.221   0.239   0.204   0.217   0.221   0.233   0.205   0.214   0.226   0.206   0.234   0.229   0.241
   201.00    0.235   0.224   0.212   0.234   0.227   0.239   0.219   0.214   0.223   0.216   0.229   0.221   0.219   0.236   0.233   0.232   0.246   0.215   0.226   0.246   0.229   0.236   0.205   0.224   0.223   0.213   0.217   0.228   0.232   0.212   0.242   0.236   0.239   0.240   0.237   0.226   0.223   0.243   0.236   0.218   0.222   0.212   0.218   0.216   0.228   0.224   0.218   0.206   0.235   0.210   0.220   0.227   0.223   0.222   0.212   0.223   0.203   0.220   0.227   0.220   0.209   0.225   0.224   0.222   0.237   0.220   0.229   0.216   0.226   0.212   0.213   0.219   0.220   0.226   0.211
   181.00    0.227   0.241   0.232   0.214   0.228   0.221   0.218   0.224   0.227   0.208   0.217   0.223   0.241   0.204   0.220   0.241   0.242   0.218   0.219   0.235   0.240   0.246   0.236   0.237   0.203   0.226   0.226   0.218   0.210   0.210   0.228   0.237   0.230   0.229   0.230   0.216   0.246   0.226   0.217   0.224   0.212   0.208   0.221   0.238   0.236   0.225   0.219   0.237   0.216   0.232   0.221   0.214   0.209   0.228   0.240   0.229   0.235   0.220   0.227   0.210   0.234   0.240   0.218   0.237   0.238   0.208   0.219   0.208   0.222   0.217   0.231   0.211   0.207   0.224   0.210
   161.00    0.228   0.209   0.219   0.223   0.220   0.215   0.209   0.229   0.238   0.207   0.220   0.231   0.228   0.241   0.228   0.222   0.236   0.207   0.214   0.228   0.218   0.228   0.234   0.209   0.235   0.239   0.211   0.220   0.206   0.227   0.230   0.220   0.226   0.219   0.231   0.221   0.228   0.222   0.222   0.217   0.211   0.216   0.222   0.223   0.231   0.242   0.206   0.225   0.218   0.227   0.207   0.222   0.217   0.221   0.228   0.236   0.230   0.215   0.235   0.212   0.210   0.214   0.214   0.221   0.226   0.236   0.225   0.247   0.229   0.214   0.223   0.242   0.224   0.239   0.215
   141.00    0.211   0.228   0.231   0.231   0.201   0.216   0.223   0.214   0.228   0.230   0.211   0.209   0.217   0.224   0.223   0.226   0.220   0.228   0.211   0.216   0.226   0.246   0.204   0.224   0.235   0.219   0.217   0.235   0.245   0.206   0.215   0.216   0.230   0.220   0.215   0.217   0.214   0.237   0.219   0.219   0.218   0.218   0.226   0.230   0.220   0.210   0.232   0.208   0.214   0.219   0.217   0.222   0.227   0.212   0.221   0.223   0.226   0.211   0.220   0.218   0.211   0.220   0.230   0.213   0.227   0.220   0.216   0.237   0.232   0.213   0.216   0.231   0.218   0.218   0.236
   121.00    0.231   0.236   0.219   0.211   0.226   0.234   0.217   0.213   0.210   0.220   0.226   0.226   0.207   0.227   0.215   0.221   0.226   0.236   0.233   0.216   0.218   0.227   0.218   0.218   0.212   0.230   0.239   0.215   0.231   0.222   0.212   0.231   0.200   0.225   0.230   0.208   0.215   0.223   0.229   0.242   0.217   0.237   0.243   0.210   0.212   0.242   0.240   0.228   0.208   0.214   0.217   0.213   0.225   0.236   0.203   0.214   0.232   0.237   0.200   0.223   0.231   0.221   0.237   0.237   0.241   0.229   0.225   0.221   0.218   0.217   0.212   0.217   0.218   0.226   0.238
   101.00    0.223   0.237   0.216   0.232   0.223   0.220   0.222   0.230   0.210   0.221   0.214   0.220   0.227   0.230   0.229   0.224   0.222   0.231   0.225   0.223   0.245   0.202   0.224   0.223   0.223   0.222   0.232   0.210   0.211   0.231   0.237   0.224   0.224   0.226   0.215   0.235   0.227   0.225   0.224   0.242   0.233   0.221   0.222   0.226   0.237   0.219   0.227   0.214   0.241   0.213   0.230   0.237   0.225   0.240   0.227   0.229   0.227   0.218   0.226   0.229   0.214   0.224   0.214   0.231   0.238   0.219   0.219   0.214   0.220   0.212   0.213   0.213   0.221   0.219   0.220
    81.00    0.217   0.230   0.209   0.225   0.203   0.225   0.228   0.217   0.208   0.228   0.221   0.221   0.233   0.207   0.207   0.227   0.240   0.201   0.218   0.214   0.233   0.245   0.237   0.204   0.210   0.227   0.203   0.214   0.224   0.226   0.222   0.226   0.244   0.222   0.232   0.221   0.213   0.235   0.218   0.216   0.220   0.219   0.228   0.234   0.218   0.218   0.234   0.216   0.225   0.243   0.213   0.217   0.222   0.223   0.214   0.230   0.220   0.203   0.231   0.208   0.229   0.224   0.217   0.228   0.230   0.210   0.236   0.226   0.203   0.217   0.225   0.226   0.212   0.220   0.220
    61.00    0.218   0.220   0.218   0.227   0.235   0.222   0.223   0.234   0.231   0.234   0.206   0.229   0.218   0.231   0.214   0.238   0.226   0.226   0.226   0.220   0.239   0.213   0.221   0.238   0.206   0.220   0.221   0.232   0.239   0.211   0.229   0.218   0.232   0.240   0.228   0.221   0.226   0.236   0.209   0.208   0.221   0.223   0.210   0.217   0.219   0.227   0.243   0.209   0.229   0.251   0.197   0.222   0.237   0.220   0.206   0.228   0.232   0.241   0.234   0.229   0.232   0.222   0.219   0.226   0.210   0.216   0.222   0.227   0.220   0.240   0.225   0.211   0.220   0.221   0.232
    41.00    0.228   0.231   0.239   0.226   0.231   0.235   0.212   0.215   0.236   0.232   0.247   0.249   0.238   0.212   0.226   0.235   0.211   0.235   0.214   0.220   0.209   0.217   0.218   0.217   0.236   0.243   0.234   0.248   0.227   0.225   0.214   0.207   0.224   0.222   0.235   0.228   0.214   0.233   0.244   0.235   0.238   0.209   0.232   0.217   0.221   0.208   0.220   0.237   0.228   0.241   0.243   0.236   0.234   0.226   0.227   0.229   0.217   0.239   0.227   0.221   0.226   0.234   0.243   0.244   0.211   0.229   0.224   0.219   0.219   0.217   0.221   0.224   0.220   0.224   0.211
    21.00    0.211   0.228   0.232   0.226   0.202   0.218   0.239   0.213   0.232   0.225   0.233   0.250   0.219   0.232   0.227   0.218   0.231   0.226   0.219   0.229   0.240   0.236   0.237   0.249   0.200   0.218   0.237   0.241   0.221   0.220   0.209   0.230   0.214   0.207   0.219   0.209   0.224   0.233   0.249   0.205   0.213   0.228   0.204   0.224   0.221   0.217   0.223   0.227   0.222   0.221   0.215   0.225   0.204   0.215   0.219   0.223   0.219   0.229   0.218   0.206   0.213   0.231   0.234   0.236   0.218   0.223   0.209   0.221   0.217   0.223   0.224   0.237   0.244   0.209   0.236
     1.00    0.224   0.234   0.214   0.217   0.225   0.229   0.215   0.229   0.233   0.214   0.220   0.232   0.234   0.234   0.225   0.222   0.228   0.214   0.228   0.219   0.220   0.216   0.232   0.231   0.231   0.232   0.219   0.229   0.214   0.217   0.231   0.226   0.225   0.228   0.223   0.215   0.221   0.213   0.232   0.235   0.212   0.214   0.220   0.230   0.223   0.233   0.229   0.234   0.212   0.226   0.213   0.232   0.226   0.225   0.221   0.214   0.216   0.230   0.221   0.233   0.227   0.221   0.224   0.234   0.216   0.225   0.221   0.224   0.214   0.216   0.233   0.214   0.232   0.222   0.213

   Mean standard deviation across all grid points:
      u component:    0.246 m/s
      v component:    0.269 m/s
      w component:    0.223 m/s


U-component (X) statistics from the interpolated hub point:

   Mean =   5.7464 m/s
   TI   =   4.3365 %


Processing complete.  111.29 CPU seconds used.
