
This summary file was generated by TurbSim (from OpenFAST-v3.5.0) on 23-Apr-2024 at 21:58:23.


Runtime Options:

   2318573  Random seed #1
    RANLUX  Type of random number generator
         F  Output binary HH turbulence parameters?
         F  Output formatted turbulence parameters?
         F  Output AeroDyn HH files?
         T  Output AeroDyn FF files?
         F  Output BLADED FF files?
         F  Output tower data?
         F  Output HAWC FF files?
         F  Output formatted FF files?
         T  Output coherent turbulence time step file?
 0 -  NONE  IEC turbulence models scaled to exact specified standard deviation


Turbine/Model Specifications:

        61  Vertical grid-point matrix dimension
        59  Horizontal grid-point matrix dimension
     0.300  Time step [seconds]
    20.000  Analysis time [seconds]
    20.000  Usable output time [seconds]
   156.000  Hub height [m]
   300.000  Grid height [m]
   290.000  Grid width [m]
     0.000  Vertical flow angle [degrees]
     0.000  Horizontal flow angle [degrees]


Meteorological Boundary Conditions:

    TIMESR  User-input time series spectral model
       N/A  IEC standard
       N/A  IEC turbulence characteristic
       N/A  IEC turbulence type
       N/A  IEC Extreme Turbulence Model (ETM) "c" parameter [m/s]
       PL   Wind profile type
   150.000  Reference height [m]
     5.245  Reference wind speed [m/s]
       N/A  Jet height [m]
     0.120  Power law exponent
     0.030  Surface roughness length [m]


Non-IEC Meteorological Boundary Conditions:

    45.000  Site latitude [degrees]
     0.050  Gradient Richardson number
     0.237  Friction or shear velocity [m/s]
       N/A  Mixing layer depth [m]
       N/A  Mean hub u'w' Reynolds stress
       N/A  Mean hub u'v' Reynolds stress
       N/A  Mean hub v'w' Reynolds stress


Spatial Coherence Models:

       IEC  u-component coherence model
       IEC  v-component coherence model
       IEC  w-component coherence model
(   12.000, 0.353E-03)  u-component coherence parameters
(   12.000, 0.353E-03)  v-component coherence parameters
(   12.000, 0.353E-03)  w-component coherence parameters
       N/A  Coherence exponent


Coherent Turbulence Scaling Parameters:

.\EventData
            Name of the path containing the coherent turbulence data files
       les  Type of coherent turbulence data files
     1.000  Disturbance scale (ratio of wave height to rotor diameter)
     0.500  Fractional location of tower centerline from right
     0.500  Fractional location of hub height from the bottom of the dataset
    30.000  Minimum start time for coherent structures [seconds]


Profiles from User-Defined Time-Series Input:

  Height   Wind Speed   Horizontal Angle   Vertical Angle
   (m)        (m/s)          (deg)              (deg)    
  ------   ----------   ----------------   --------------
  141.00       5.21           0.00               -0.00


You have requested that the following file(s) be generated:

   /projects/rlfarmcontr/RLControl_Parallel/RLControl/windfarm_v1p0/FFSetup/../FFSim/Sim_1713930974.7847342/Cond00_v05.2_PL0.12_TI10/Case0_wdirp00_yawCase1/Seed_0/TurbSim/HighT3.bts (AeroDyn/TurbSim full-field wind file)


Turbulence Simulation Scaling Parameter Summary:

   Turbulence model used                            =  User-input time series
   Gradient Richardson number                       =    0.050
   Monin-Obukhov (M-O) z/L parameter                =    0.067
   Monin-Obukhov (M-O) length scale                 = 2340.000 m
   Mean wind speed at hub height                    =    5.270 m/s

   Wind profile type                                =  Power law
   Power law exponent                               =    0.120
   Mean shear across rotor disk                     =    0.006 (m/s)/m
   Assumed rotor diameter                           =  290.000 m
   Surface roughness length                         =    0.030 m

   Nyquist frequency of turbulent wind field        =    1.667 Hz

   Number of time steps in the FFT                  =       68
   Number of time steps output                      =       68
   Number of points simulated                       =     3600


Mean Flow Angles:

   Vertical   =   0.0 degrees
   Horizontal =   0.0 degrees

Mean Wind Speed Profile:

   Height    Wind Speed   Horizontal Angle  Vertical Angle  U-comp (X)   V-comp (Y)   W-comp (Z)
     (m)        (m/s)         (degrees)       (degrees)       (m/s)        (m/s)        (m/s)   
   ------    ----------   ----------------  --------------  ----------   ----------   ----------
    301.0        5.70            0.00            0.00          5.70         0.00         0.00
    296.0        5.69            0.00            0.00          5.69         0.00         0.00
    291.0        5.68            0.00            0.00          5.68         0.00         0.00
    286.0        5.67            0.00            0.00          5.67         0.00         0.00
    281.0        5.66            0.00            0.00          5.66         0.00         0.00
    276.0        5.64            0.00            0.00          5.64         0.00         0.00
    271.0        5.63            0.00            0.00          5.63         0.00         0.00
    266.0        5.62            0.00            0.00          5.62         0.00         0.00
    261.0        5.61            0.00            0.00          5.61         0.00         0.00
    256.0        5.59            0.00            0.00          5.59         0.00         0.00
    251.0        5.58            0.00            0.00          5.58         0.00         0.00
    246.0        5.57            0.00            0.00          5.57         0.00         0.00
    241.0        5.55            0.00            0.00          5.55         0.00         0.00
    236.0        5.54            0.00            0.00          5.54         0.00         0.00
    231.0        5.52            0.00            0.00          5.52         0.00         0.00
    226.0        5.51            0.00            0.00          5.51         0.00         0.00
    221.0        5.49            0.00            0.00          5.49         0.00         0.00
    216.0        5.48            0.00            0.00          5.48         0.00         0.00
    211.0        5.46            0.00            0.00          5.46         0.00         0.00
    206.0        5.45            0.00            0.00          5.45         0.00         0.00
    201.0        5.43            0.00            0.00          5.43         0.00         0.00
    196.0        5.42            0.00            0.00          5.42         0.00         0.00
    191.0        5.40            0.00            0.00          5.40         0.00         0.00
    186.0        5.38            0.00            0.00          5.38         0.00         0.00
    181.0        5.36            0.00            0.00          5.36         0.00         0.00
    176.0        5.35            0.00            0.00          5.35         0.00         0.00
    171.0        5.33            0.00            0.00          5.33         0.00         0.00
    166.0        5.31            0.00            0.00          5.31         0.00         0.00
    161.0        5.29            0.00            0.00          5.29         0.00         0.00
    156.0        5.27            0.00            0.00          5.27         0.00         0.00
    151.0        5.25            0.00            0.00          5.25         0.00         0.00
    146.0        5.23            0.00            0.00          5.23         0.00         0.00
    141.0        5.21            0.00            0.00          5.21         0.00         0.00
    136.0        5.18            0.00            0.00          5.18         0.00         0.00
    131.0        5.16            0.00            0.00          5.16         0.00         0.00
    126.0        5.14            0.00            0.00          5.14         0.00         0.00
    121.0        5.11            0.00            0.00          5.11         0.00         0.00
    116.0        5.09            0.00            0.00          5.09         0.00         0.00
    111.0        5.06            0.00            0.00          5.06         0.00         0.00
    106.0        5.03            0.00            0.00          5.03         0.00         0.00
    101.0        5.00            0.00            0.00          5.00         0.00         0.00
     96.0        4.97            0.00            0.00          4.97         0.00         0.00
     91.0        4.94            0.00            0.00          4.94         0.00         0.00
     86.0        4.91            0.00            0.00          4.91         0.00         0.00
     81.0        4.87            0.00            0.00          4.87         0.00         0.00
     76.0        4.83            0.00            0.00          4.83         0.00         0.00
     71.0        4.79            0.00            0.00          4.79         0.00         0.00
     66.0        4.75            0.00            0.00          4.75         0.00         0.00
     61.0        4.71            0.00            0.00          4.71         0.00         0.00
     56.0        4.66            0.00            0.00          4.66         0.00         0.00
     51.0        4.61            0.00            0.00          4.61         0.00         0.00
     46.0        4.55            0.00            0.00          4.55         0.00         0.00
     41.0        4.49            0.00            0.00          4.49         0.00         0.00
     36.0        4.42            0.00            0.00          4.42         0.00         0.00
     31.0        4.34            0.00            0.00          4.34         0.00         0.00
     26.0        4.25            0.00            0.00          4.25         0.00         0.00
     21.0        4.14            0.00            0.00          4.14         0.00         0.00
     16.0        4.01            0.00            0.00          4.01         0.00         0.00
     11.0        3.83            0.00            0.00          3.83         0.00         0.00
      6.0        3.56            0.00            0.00          3.56         0.00         0.00
      1.0        2.87            0.00            0.00          2.87         0.00         0.00


Harvested Random Seeds after Generation of the Random Numbers:

      3411900 K 1
            0 K 2


Hub-Height Simulated Turbulence Statistical Summary:

   Type of Wind        Min (m/s)   Mean (m/s)    Max (m/s)  Sigma (m/s)       TI (%)
   ----------------    ---------   ----------    ---------  -----------       ------
   Longitudinal (u)         4.86         5.27         5.70        0.196        3.726
   Lateral (v)             -0.55        -0.00         0.36        0.199        3.775
   Vertical (w)            -0.49         0.00         0.36        0.209        3.972
   U component              4.86         5.27         5.70        0.196        3.726
   V component             -0.55        -0.00         0.36        0.199        3.775
   W component             -0.49         0.00         0.36        0.209        3.972
   Horizontal (U&V)         4.87         5.27         5.71        0.195        3.705
   Total                    4.88         5.28         5.72        0.195        3.691

                       Min Reynolds     Mean Reynolds    Max Reynolds    Correlation
   Product             Stress (m/s)^2   Stress (m/s)^2   Stress (m/s)^2  Coefficient
   ----------------    --------------   --------------   --------------  -----------
   u'w'                     -0.048             0.018             0.129         0.429
   u'v'                     -0.145             0.002             0.121         0.055
   v'w'                     -0.122             0.004             0.115         0.085


   Friction Velocity (Ustar)  =      0.133 m/s
   Maximum Instantaneous TKE  =      0.194 (m/s)^2
   Maximum Instantaneous CTKE =      0.110 (m/s)^2


Grid Point Variance Summary:

   Y-coord -145.00 -140.00 -135.00 -130.00 -125.00 -120.00 -115.00 -110.00 -105.00 -100.00  -95.00  -90.00  -85.00  -80.00  -75.00  -70.00  -65.00  -60.00  -55.00  -50.00  -45.00  -40.00  -35.00  -30.00  -25.00  -20.00  -15.00  -10.00   -5.00    0.00    5.00   10.00   15.00   20.00   25.00   30.00   35.00   40.00   45.00   50.00   55.00   60.00   65.00   70.00   75.00   80.00   85.00   90.00   95.00  100.00  105.00  110.00  115.00  120.00  125.00  130.00  135.00  140.00  145.00

   Height   Standard deviation at grid points for the u component:
   301.00    0.166   0.263   0.190   0.246   0.228   0.212   0.218   0.199   0.225   0.321   0.336   0.200   0.191   0.290   0.190   0.263   0.185   0.192   0.174   0.187   0.195   0.240   0.212   0.222   0.241   0.237   0.247   0.238   0.252   0.267   0.262   0.265   0.306   0.227   0.286   0.303   0.177   0.275   0.239   0.240   0.206   0.337   0.208   0.243   0.239   0.303   0.246   0.298   0.359   0.267   0.269   0.229   0.246   0.171   0.207   0.161   0.235   0.301   0.185
   296.00    0.283   0.289   0.319   0.266   0.237   0.221   0.220   0.185   0.197   0.234   0.252   0.201   0.215   0.234   0.216   0.241   0.218   0.264   0.209   0.252   0.213   0.258   0.180   0.199   0.264   0.214   0.213   0.279   0.200   0.242   0.248   0.352   0.387   0.177   0.272   0.274   0.260   0.231   0.303   0.327   0.241   0.325   0.313   0.255   0.328   0.190   0.317   0.225   0.299   0.236   0.208   0.183   0.189   0.217   0.216   0.179   0.272   0.304   0.212
   291.00    0.207   0.220   0.255   0.294   0.296   0.219   0.177   0.191   0.198   0.169   0.300   0.210   0.201   0.252   0.225   0.214   0.187   0.215   0.341   0.196   0.220   0.173   0.231   0.210   0.273   0.210   0.192   0.215   0.220   0.277   0.299   0.332   0.322   0.260   0.257   0.251   0.279   0.260   0.358   0.197   0.276   0.234   0.365   0.262   0.368   0.292   0.232   0.287   0.355   0.200   0.186   0.189   0.246   0.251   0.185   0.238   0.210   0.277   0.303
   286.00    0.192   0.202   0.169   0.193   0.170   0.180   0.206   0.277   0.166   0.257   0.346   0.180   0.216   0.166   0.216   0.222   0.329   0.363   0.308   0.259   0.221   0.276   0.258   0.226   0.218   0.251   0.212   0.177   0.202   0.197   0.239   0.307   0.344   0.376   0.365   0.168   0.173   0.252   0.318   0.369   0.217   0.257   0.333   0.384   0.319   0.311   0.184   0.182   0.281   0.222   0.230   0.273   0.161   0.206   0.200   0.262   0.330   0.181   0.231
   281.00    0.228   0.263   0.214   0.225   0.282   0.286   0.270   0.183   0.261   0.288   0.325   0.268   0.227   0.277   0.339   0.314   0.331   0.278   0.279   0.164   0.282   0.284   0.371   0.361   0.353   0.168   0.156   0.284   0.174   0.180   0.213   0.276   0.222   0.274   0.322   0.230   0.289   0.230   0.231   0.236   0.288   0.316   0.322   0.346   0.273   0.214   0.170   0.202   0.245   0.238   0.309   0.315   0.296   0.298   0.236   0.238   0.312   0.209   0.271
   276.00    0.271   0.204   0.190   0.225   0.291   0.211   0.224   0.172   0.213   0.193   0.189   0.195   0.254   0.299   0.222   0.266   0.226   0.277   0.294   0.285   0.259   0.253   0.321   0.398   0.329   0.339   0.229   0.376   0.237   0.265   0.268   0.197   0.184   0.246   0.289   0.195   0.216   0.233   0.197   0.209   0.215   0.237   0.238   0.251   0.246   0.251   0.202   0.258   0.234   0.294   0.317   0.274   0.214   0.187   0.230   0.221   0.233   0.294   0.234
   271.00    0.273   0.289   0.313   0.190   0.272   0.192   0.212   0.230   0.199   0.209   0.234   0.303   0.243   0.291   0.210   0.199   0.228   0.253   0.207   0.210   0.306   0.204   0.276   0.344   0.263   0.308   0.374   0.375   0.377   0.186   0.282   0.149   0.220   0.282   0.225   0.344   0.182   0.272   0.199   0.253   0.185   0.312   0.295   0.265   0.194   0.242   0.288   0.190   0.232   0.240   0.244   0.330   0.242   0.195   0.221   0.174   0.229   0.304   0.175
   266.00    0.257   0.323   0.209   0.290   0.250   0.283   0.250   0.227   0.214   0.178   0.178   0.252   0.261   0.223   0.246   0.208   0.211   0.260   0.173   0.199   0.226   0.305   0.322   0.316   0.286   0.186   0.275   0.374   0.220   0.313   0.235   0.223   0.222   0.214   0.265   0.333   0.287   0.234   0.263   0.189   0.249   0.309   0.250   0.247   0.225   0.201   0.219   0.195   0.212   0.299   0.392   0.343   0.368   0.335   0.208   0.262   0.240   0.282   0.200
   261.00    0.275   0.207   0.235   0.302   0.241   0.251   0.210   0.249   0.164   0.219   0.300   0.242   0.210   0.218   0.191   0.201   0.231   0.269   0.233   0.236   0.182   0.215   0.286   0.234   0.283   0.153   0.223   0.289   0.296   0.331   0.192   0.215   0.282   0.223   0.209   0.241   0.210   0.183   0.215   0.210   0.200   0.240   0.307   0.208   0.210   0.241   0.184   0.227   0.270   0.292   0.313   0.302   0.274   0.223   0.183   0.229   0.229   0.201   0.219
   256.00    0.198   0.194   0.183   0.186   0.201   0.230   0.266   0.184   0.217   0.184   0.248   0.280   0.192   0.250   0.278   0.178   0.178   0.221   0.174   0.256   0.184   0.218   0.225   0.242   0.195   0.223   0.214   0.253   0.327   0.217   0.303   0.274   0.323   0.208   0.203   0.230   0.240   0.190   0.234   0.196   0.210   0.269   0.242   0.248   0.248   0.176   0.273   0.179   0.217   0.190   0.204   0.207   0.213   0.223   0.288   0.167   0.246   0.196   0.230
   251.00    0.247   0.273   0.312   0.353   0.198   0.251   0.262   0.175   0.260   0.209   0.276   0.181   0.230   0.224   0.158   0.275   0.336   0.281   0.261   0.202   0.212   0.233   0.210   0.192   0.210   0.169   0.269   0.196   0.213   0.244   0.277   0.284   0.258   0.184   0.221   0.200   0.201   0.233   0.210   0.244   0.262   0.260   0.249   0.239   0.193   0.255   0.289   0.201   0.197   0.202   0.253   0.238   0.305   0.245   0.202   0.276   0.259   0.285   0.161
   246.00    0.226   0.207   0.266   0.337   0.232   0.161   0.237   0.205   0.183   0.200   0.263   0.277   0.270   0.191   0.248   0.312   0.334   0.182   0.165   0.226   0.191   0.250   0.168   0.252   0.189   0.199   0.306   0.221   0.203   0.216   0.205   0.212   0.275   0.183   0.223   0.265   0.297   0.200   0.234   0.241   0.252   0.205   0.268   0.317   0.306   0.248   0.296   0.353   0.305   0.380   0.225   0.276   0.176   0.297   0.240   0.179   0.269   0.224   0.274
   241.00    0.231   0.223   0.187   0.229   0.263   0.233   0.324   0.317   0.310   0.161   0.258   0.213   0.246   0.187   0.191   0.263   0.201   0.216   0.213   0.255   0.218   0.235   0.192   0.203   0.233   0.211   0.264   0.189   0.196   0.229   0.205   0.264   0.303   0.267   0.172   0.195   0.318   0.198   0.170   0.188   0.265   0.274   0.176   0.322   0.243   0.184   0.260   0.286   0.362   0.274   0.342   0.235   0.264   0.284   0.173   0.299   0.218   0.221   0.265
   236.00    0.210   0.186   0.206   0.194   0.211   0.161   0.232   0.302   0.311   0.308   0.201   0.250   0.189   0.172   0.203   0.251   0.232   0.232   0.176   0.201   0.247   0.198   0.217   0.250   0.178   0.188   0.231   0.182   0.224   0.246   0.207   0.195   0.239   0.207   0.258   0.292   0.309   0.292   0.202   0.240   0.339   0.281   0.358   0.356   0.305   0.180   0.188   0.225   0.264   0.355   0.271   0.243   0.295   0.216   0.223   0.297   0.362   0.356   0.201
   231.00    0.257   0.245   0.214   0.230   0.286   0.329   0.267   0.273   0.225   0.276   0.314   0.191   0.263   0.213   0.243   0.309   0.199   0.196   0.207   0.197   0.180   0.252   0.232   0.182   0.285   0.224   0.224   0.266   0.261   0.226   0.230   0.209   0.204   0.201   0.257   0.224   0.195   0.230   0.278   0.193   0.252   0.255   0.245   0.299   0.329   0.210   0.196   0.235   0.186   0.292   0.300   0.383   0.368   0.361   0.378   0.229   0.266   0.312   0.334
   226.00    0.236   0.198   0.174   0.231   0.294   0.230   0.240   0.187   0.193   0.226   0.232   0.196   0.202   0.258   0.318   0.192   0.249   0.281   0.240   0.316   0.269   0.258   0.196   0.196   0.239   0.285   0.164   0.220   0.235   0.195   0.210   0.246   0.192   0.244   0.172   0.182   0.215   0.267   0.330   0.216   0.241   0.228   0.197   0.262   0.220   0.257   0.221   0.181   0.175   0.168   0.307   0.395   0.339   0.229   0.246   0.254   0.201   0.284   0.213
   221.00    0.166   0.255   0.222   0.215   0.201   0.296   0.167   0.191   0.225   0.222   0.189   0.167   0.209   0.240   0.218   0.269   0.260   0.363   0.212   0.164   0.267   0.230   0.252   0.234   0.236   0.229   0.243   0.293   0.188   0.292   0.390   0.257   0.232   0.263   0.219   0.298   0.248   0.166   0.242   0.322   0.218   0.275   0.168   0.210   0.186   0.240   0.253   0.257   0.232   0.280   0.307   0.300   0.310   0.328   0.385   0.288   0.224   0.292   0.246
   216.00    0.211   0.198   0.318   0.347   0.181   0.269   0.312   0.187   0.210   0.240   0.188   0.258   0.297   0.201   0.291   0.196   0.259   0.344   0.400   0.221   0.194   0.197   0.209   0.230   0.299   0.346   0.217   0.179   0.256   0.329   0.393   0.361   0.226   0.322   0.182   0.256   0.305   0.196   0.226   0.261   0.285   0.343   0.387   0.211   0.173   0.155   0.202   0.219   0.202   0.189   0.236   0.185   0.159   0.265   0.326   0.329   0.206   0.286   0.196
   211.00    0.279   0.311   0.289   0.249   0.334   0.209   0.255   0.198   0.256   0.190   0.154   0.245   0.324   0.353   0.288   0.226   0.267   0.243   0.369   0.385   0.311   0.200   0.235   0.288   0.328   0.366   0.338   0.210   0.212   0.237   0.270   0.306   0.307   0.306   0.223   0.180   0.254   0.219   0.217   0.223   0.249   0.328   0.366   0.342   0.235   0.277   0.265   0.221   0.176   0.184   0.228   0.234   0.259   0.322   0.344   0.314   0.215   0.283   0.329
   206.00    0.215   0.232   0.279   0.330   0.393   0.247   0.213   0.193   0.279   0.381   0.225   0.364   0.264   0.302   0.212   0.339   0.333   0.387   0.403   0.433   0.398   0.282   0.286   0.322   0.303   0.287   0.232   0.196   0.221   0.196   0.279   0.201   0.259   0.202   0.232   0.289   0.208   0.174   0.235   0.202   0.200   0.238   0.285   0.199   0.346   0.200   0.214   0.269   0.241   0.236   0.245   0.245   0.268   0.373   0.226   0.295   0.187   0.161   0.258
   201.00    0.196   0.218   0.181   0.297   0.361   0.194   0.198   0.234   0.288   0.330   0.367   0.370   0.292   0.307   0.375   0.219   0.355   0.440   0.361   0.395   0.407   0.174   0.190   0.182   0.212   0.169   0.236   0.179   0.213   0.279   0.204   0.231   0.233   0.252   0.256   0.251   0.224   0.183   0.234   0.170   0.224   0.207   0.267   0.323   0.304   0.312   0.189   0.219   0.210   0.260   0.219   0.199   0.230   0.320   0.349   0.307   0.207   0.292   0.277
   196.00    0.280   0.271   0.306   0.204   0.293   0.274   0.232   0.190   0.251   0.284   0.271   0.240   0.268   0.195   0.266   0.327   0.369   0.366   0.356   0.349   0.299   0.219   0.212   0.289   0.290   0.323   0.180   0.282   0.209   0.207   0.308   0.360   0.194   0.250   0.188   0.244   0.192   0.212   0.211   0.179   0.226   0.201   0.292   0.336   0.195   0.200   0.267   0.161   0.195   0.184   0.250   0.188   0.189   0.288   0.305   0.310   0.246   0.274   0.189
   191.00    0.245   0.263   0.280   0.245   0.229   0.202   0.166   0.224   0.237   0.255   0.191   0.184   0.246   0.338   0.251   0.359   0.232   0.236   0.254   0.223   0.274   0.260   0.302   0.205   0.225   0.228   0.250   0.253   0.289   0.204   0.241   0.308   0.245   0.254   0.230   0.220   0.288   0.197   0.180   0.199   0.239   0.283   0.243   0.300   0.193   0.269   0.197   0.194   0.203   0.249   0.229   0.275   0.307   0.280   0.280   0.283   0.213   0.187   0.205
   186.00    0.262   0.250   0.239   0.174   0.256   0.165   0.208   0.254   0.254   0.206   0.173   0.182   0.270   0.309   0.307   0.350   0.366   0.235   0.341   0.342   0.315   0.343   0.355   0.279   0.187   0.247   0.218   0.175   0.198   0.213   0.176   0.257   0.189   0.222   0.254   0.235   0.251   0.175   0.210   0.184   0.243   0.315   0.290   0.243   0.206   0.230   0.254   0.222   0.189   0.198   0.199   0.217   0.321   0.241   0.173   0.176   0.214   0.220   0.244
   181.00    0.256   0.197   0.204   0.206   0.183   0.217   0.211   0.197   0.257   0.208   0.177   0.302   0.331   0.361   0.268   0.263   0.277   0.251   0.274   0.313   0.159   0.269   0.314   0.262   0.211   0.268   0.169   0.219   0.206   0.187   0.205   0.262   0.169   0.234   0.208   0.194   0.189   0.216   0.187   0.223   0.211   0.211   0.242   0.189   0.195   0.199   0.172   0.191   0.180   0.237   0.293   0.204   0.245   0.295   0.166   0.230   0.312   0.174   0.219
   176.00    0.160   0.222   0.185   0.270   0.205   0.229   0.254   0.291   0.288   0.193   0.254   0.267   0.308   0.309   0.173   0.294   0.225   0.215   0.207   0.258   0.224   0.296   0.300   0.189   0.182   0.210   0.211   0.202   0.224   0.253   0.232   0.220   0.244   0.208   0.251   0.218   0.230   0.232   0.188   0.222   0.184   0.210   0.202   0.175   0.232   0.252   0.231   0.257   0.298   0.286   0.315   0.293   0.223   0.254   0.320   0.166   0.273   0.263   0.196
   171.00    0.315   0.219   0.272   0.361   0.232   0.364   0.264   0.274   0.245   0.201   0.185   0.266   0.198   0.209   0.268   0.326   0.199   0.223   0.297   0.198   0.243   0.309   0.211   0.209   0.219   0.279   0.193   0.183   0.214   0.224   0.195   0.233   0.221   0.272   0.320   0.184   0.246   0.269   0.187   0.239   0.203   0.227   0.190   0.241   0.284   0.197   0.201   0.272   0.181   0.255   0.248   0.218   0.272   0.216   0.193   0.220   0.297   0.278   0.195
   166.00    0.298   0.329   0.196   0.268   0.336   0.337   0.281   0.184   0.265   0.208   0.271   0.225   0.213   0.180   0.264   0.206   0.295   0.204   0.254   0.150   0.263   0.292   0.193   0.241   0.213   0.298   0.223   0.200   0.247   0.183   0.241   0.271   0.300   0.242   0.337   0.223   0.182   0.231   0.212   0.189   0.197   0.202   0.263   0.170   0.204   0.267   0.193   0.265   0.238   0.271   0.200   0.168   0.230   0.155   0.227   0.207   0.303   0.286   0.207
   161.00    0.194   0.266   0.306   0.211   0.249   0.234   0.229   0.242   0.209   0.317   0.276   0.279   0.271   0.288   0.244   0.229   0.217   0.289   0.206   0.182   0.281   0.276   0.325   0.205   0.188   0.220   0.215   0.199   0.179   0.216   0.219   0.203   0.272   0.382   0.396   0.281   0.269   0.228   0.179   0.168   0.286   0.280   0.191   0.262   0.184   0.250   0.231   0.204   0.249   0.296   0.209   0.212   0.196   0.296   0.264   0.196   0.258   0.203   0.211
   156.00    0.223   0.186   0.239   0.253   0.220   0.240   0.198   0.172   0.232   0.251   0.245   0.333   0.258   0.307   0.155   0.204   0.198   0.284   0.219   0.202   0.273   0.220   0.257   0.264   0.230   0.210   0.212   0.192   0.254   0.196   0.190   0.249   0.324   0.357   0.313   0.304   0.184   0.230   0.209   0.212   0.276   0.293   0.209   0.263   0.247   0.259   0.190   0.222   0.201   0.195   0.250   0.183   0.241   0.318   0.227   0.196   0.309   0.328   0.272
   151.00    0.187   0.203   0.215   0.169   0.233   0.292   0.202   0.223   0.277   0.191   0.185   0.287   0.315   0.305   0.222   0.278   0.279   0.200   0.294   0.272   0.192   0.212   0.234   0.276   0.281   0.251   0.241   0.167   0.205   0.221   0.312   0.242   0.275   0.292   0.205   0.269   0.276   0.218   0.245   0.164   0.218   0.229   0.210   0.257   0.210   0.272   0.167   0.228   0.270   0.206   0.191   0.165   0.287   0.255   0.360   0.291   0.246   0.272   0.232
   146.00    0.301   0.255   0.240   0.292   0.260   0.271   0.246   0.204   0.220   0.269   0.337   0.335   0.243   0.269   0.322   0.278   0.196   0.223   0.257   0.187   0.205   0.236   0.243   0.255   0.223   0.180   0.217   0.276   0.203   0.276   0.328   0.322   0.222   0.196   0.252   0.296   0.319   0.167   0.241   0.232   0.243   0.199   0.196   0.210   0.278   0.219   0.213   0.169   0.200   0.240   0.301   0.240   0.309   0.274   0.232   0.296   0.326   0.255   0.246
   141.00    0.238   0.204   0.219   0.204   0.181   0.189   0.250   0.155   0.172   0.286   0.284   0.338   0.318   0.320   0.314   0.208   0.185   0.212   0.241   0.166   0.227   0.195   0.260   0.273   0.280   0.235   0.236   0.194   0.225   0.263   0.304   0.286   0.189   0.204   0.216   0.206   0.201   0.230   0.170   0.287   0.204   0.192   0.224   0.300   0.227   0.179   0.192   0.264   0.289   0.341   0.259   0.183   0.267   0.266   0.272   0.208   0.246   0.197   0.218
   136.00    0.254   0.184   0.245   0.169   0.264   0.235   0.275   0.221   0.227   0.308   0.368   0.313   0.230   0.326   0.212   0.279   0.295   0.190   0.222   0.180   0.236   0.256   0.277   0.319   0.356   0.321   0.286   0.284   0.210   0.258   0.228   0.263   0.264   0.215   0.195   0.226   0.287   0.201   0.239   0.291   0.174   0.275   0.163   0.247   0.224   0.202   0.211   0.317   0.190   0.271   0.317   0.346   0.352   0.335   0.199   0.168   0.239   0.298   0.209
   131.00    0.209   0.249   0.230   0.215   0.267   0.221   0.269   0.247   0.163   0.236   0.305   0.248   0.174   0.260   0.324   0.255   0.228   0.202   0.296   0.223   0.281   0.266   0.280   0.262   0.349   0.241   0.210   0.296   0.204   0.176   0.222   0.208   0.198   0.215   0.233   0.213   0.314   0.222   0.202   0.193   0.198   0.257   0.273   0.205   0.298   0.227   0.266   0.313   0.264   0.290   0.303   0.275   0.222   0.234   0.208   0.215   0.233   0.230   0.193
   126.00    0.181   0.248   0.204   0.214   0.186   0.225   0.244   0.219   0.295   0.280   0.238   0.270   0.202   0.266   0.200   0.244   0.217   0.184   0.245   0.309   0.336   0.336   0.272   0.222   0.239   0.278   0.324   0.316   0.213   0.250   0.188   0.268   0.174   0.216   0.223   0.298   0.336   0.199   0.305   0.181   0.174   0.238   0.179   0.175   0.211   0.241   0.223   0.229   0.263   0.167   0.252   0.250   0.307   0.241   0.212   0.257   0.195   0.209   0.341
   121.00    0.266   0.263   0.196   0.186   0.211   0.219   0.284   0.148   0.226   0.248   0.247   0.306   0.271   0.191   0.253   0.195   0.263   0.211   0.192   0.233   0.269   0.268   0.182   0.228   0.233   0.201   0.216   0.231   0.224   0.293   0.338   0.312   0.181   0.282   0.253   0.195   0.321   0.185   0.300   0.318   0.233   0.186   0.195   0.214   0.290   0.161   0.220   0.248   0.215   0.242   0.302   0.224   0.362   0.208   0.171   0.221   0.261   0.329   0.389
   116.00    0.209   0.216   0.175   0.224   0.161   0.200   0.230   0.296   0.213   0.196   0.264   0.275   0.193   0.263   0.259   0.290   0.257   0.208   0.245   0.172   0.263   0.324   0.221   0.191   0.229   0.194   0.180   0.242   0.196   0.179   0.233   0.232   0.223   0.293   0.186   0.186   0.297   0.248   0.260   0.256   0.172   0.207   0.236   0.199   0.269   0.220   0.172   0.188   0.262   0.202   0.209   0.319   0.362   0.352   0.202   0.164   0.232   0.300   0.347
   111.00    0.227   0.212   0.222   0.204   0.182   0.183   0.259   0.324   0.179   0.269   0.253   0.180   0.272   0.172   0.239   0.243   0.211   0.213   0.189   0.194   0.214   0.256   0.232   0.157   0.283   0.204   0.274   0.253   0.299   0.196   0.210   0.233   0.246   0.220   0.274   0.305   0.262   0.299   0.211   0.257   0.164   0.213   0.179   0.249   0.276   0.238   0.273   0.279   0.349   0.377   0.382   0.263   0.307   0.319   0.183   0.178   0.212   0.281   0.303
   106.00    0.288   0.297   0.194   0.190   0.257   0.269   0.190   0.254   0.211   0.266   0.194   0.234   0.259   0.294   0.170   0.185   0.255   0.328   0.192   0.195   0.255   0.236   0.209   0.319   0.295   0.252   0.284   0.208   0.179   0.240   0.268   0.234   0.196   0.235   0.262   0.258   0.209   0.273   0.309   0.340   0.337   0.196   0.319   0.315   0.194   0.187   0.199   0.248   0.278   0.331   0.326   0.244   0.242   0.189   0.243   0.225   0.270   0.177   0.226
   101.00    0.241   0.226   0.201   0.254   0.260   0.350   0.174   0.222   0.298   0.236   0.239   0.219   0.197   0.226   0.207   0.254   0.166   0.259   0.241   0.203   0.222   0.163   0.235   0.258   0.365   0.226   0.320   0.226   0.264   0.184   0.247   0.231   0.198   0.250   0.244   0.330   0.220   0.261   0.207   0.212   0.239   0.302   0.358   0.198   0.193   0.237   0.368   0.269   0.229   0.293   0.264   0.284   0.220   0.295   0.205   0.316   0.297   0.192   0.165
    96.00    0.236   0.274   0.174   0.221   0.273   0.305   0.254   0.199   0.251   0.242   0.227   0.206   0.177   0.248   0.220   0.185   0.243   0.231   0.234   0.288   0.265   0.304   0.334   0.220   0.312   0.335   0.337   0.161   0.184   0.203   0.241   0.196   0.240   0.261   0.289   0.242   0.288   0.185   0.253   0.266   0.199   0.235   0.311   0.302   0.283   0.348   0.357   0.264   0.200   0.214   0.168   0.255   0.177   0.240   0.287   0.275   0.204   0.280   0.298
    91.00    0.203   0.229   0.219   0.255   0.254   0.247   0.186   0.268   0.230   0.255   0.230   0.195   0.214   0.225   0.188   0.211   0.224   0.217   0.208   0.265   0.272   0.292   0.275   0.197   0.174   0.195   0.230   0.215   0.212   0.184   0.187   0.234   0.251   0.280   0.220   0.220   0.235   0.255   0.215   0.219   0.193   0.261   0.314   0.357   0.387   0.363   0.337   0.200   0.280   0.275   0.171   0.276   0.325   0.196   0.169   0.189   0.199   0.225   0.210
    86.00    0.271   0.240   0.180   0.220   0.286   0.176   0.192   0.222   0.277   0.202   0.202   0.255   0.249   0.237   0.214   0.174   0.241   0.217   0.235   0.218   0.227   0.240   0.223   0.157   0.311   0.244   0.286   0.192   0.214   0.189   0.199   0.202   0.222   0.197   0.203   0.261   0.217   0.177   0.239   0.192   0.182   0.212   0.226   0.262   0.265   0.305   0.296   0.203   0.237   0.223   0.244   0.246   0.227   0.293   0.296   0.286   0.181   0.263   0.236
    81.00    0.248   0.200   0.234   0.280   0.156   0.205   0.300   0.229   0.168   0.187   0.255   0.309   0.190   0.214   0.199   0.251   0.272   0.207   0.193   0.193   0.217   0.231   0.175   0.314   0.366   0.195   0.264   0.327   0.215   0.248   0.252   0.192   0.236   0.214   0.186   0.221   0.251   0.161   0.275   0.284   0.238   0.253   0.167   0.216   0.189   0.215   0.200   0.173   0.330   0.239   0.258   0.181   0.261   0.218   0.297   0.189   0.257   0.245   0.209
    76.00    0.164   0.291   0.196   0.236   0.271   0.267   0.191   0.217   0.194   0.209   0.361   0.224   0.233   0.219   0.306   0.329   0.269   0.202   0.259   0.183   0.217   0.259   0.255   0.235   0.329   0.185   0.276   0.307   0.281   0.217   0.266   0.198   0.249   0.191   0.211   0.211   0.271   0.287   0.283   0.253   0.218   0.326   0.363   0.163   0.285   0.246   0.218   0.362   0.458   0.391   0.261   0.179   0.256   0.184   0.269   0.288   0.227   0.246   0.240
    71.00    0.311   0.328   0.193   0.215   0.189   0.287   0.291   0.198   0.244   0.321   0.298   0.315   0.260   0.324   0.348   0.297   0.240   0.311   0.346   0.266   0.205   0.282   0.233   0.212   0.293   0.279   0.271   0.305   0.176   0.213   0.211   0.184   0.251   0.218   0.216   0.263   0.195   0.231   0.194   0.203   0.254   0.307   0.288   0.204   0.241   0.256   0.229   0.373   0.386   0.421   0.250   0.220   0.216   0.219   0.273   0.194   0.221   0.182   0.220
    66.00    0.264   0.251   0.169   0.232   0.228   0.200   0.262   0.210   0.176   0.270   0.229   0.202   0.263   0.340   0.317   0.288   0.215   0.239   0.303   0.164   0.249   0.328   0.357   0.311   0.301   0.223   0.206   0.282   0.242   0.196   0.241   0.194   0.260   0.177   0.245   0.166   0.244   0.172   0.220   0.218   0.226   0.292   0.174   0.270   0.199   0.244   0.241   0.327   0.399   0.382   0.336   0.258   0.222   0.179   0.215   0.254   0.243   0.213   0.177
    61.00    0.239   0.238   0.193   0.248   0.291   0.219   0.224   0.215   0.319   0.313   0.170   0.220   0.240   0.278   0.230   0.224   0.213   0.239   0.246   0.276   0.173   0.227   0.288   0.316   0.173   0.226   0.186   0.201   0.183   0.179   0.210   0.167   0.194   0.172   0.238   0.245   0.213   0.259   0.203   0.216   0.193   0.199   0.223   0.209   0.245   0.175   0.197   0.210   0.248   0.247   0.284   0.297   0.252   0.259   0.303   0.231   0.214   0.320   0.217
    56.00    0.294   0.348   0.193   0.312   0.179   0.264   0.213   0.241   0.321   0.370   0.213   0.281   0.178   0.210   0.246   0.242   0.196   0.156   0.169   0.278   0.202   0.290   0.276   0.199   0.289   0.156   0.243   0.274   0.239   0.222   0.273   0.300   0.307   0.297   0.238   0.173   0.260   0.249   0.310   0.221   0.217   0.236   0.257   0.193   0.178   0.215   0.189   0.214   0.175   0.233   0.242   0.178   0.217   0.270   0.211   0.247   0.251   0.309   0.301
    51.00    0.248   0.330   0.349   0.283   0.226   0.219   0.178   0.201   0.209   0.317   0.220   0.262   0.202   0.224   0.207   0.206   0.287   0.263   0.291   0.252   0.266   0.290   0.240   0.187   0.211   0.245   0.180   0.253   0.260   0.188   0.220   0.260   0.210   0.212   0.200   0.198   0.222   0.256   0.280   0.178   0.212   0.216   0.242   0.169   0.186   0.242   0.253   0.167   0.159   0.174   0.162   0.177   0.219   0.194   0.248   0.299   0.233   0.244   0.287
    46.00    0.241   0.274   0.248   0.298   0.211   0.225   0.223   0.269   0.259   0.273   0.280   0.279   0.188   0.233   0.202   0.289   0.282   0.294   0.293   0.166   0.237   0.210   0.243   0.193   0.229   0.221   0.233   0.282   0.186   0.178   0.247   0.275   0.158   0.191   0.228   0.274   0.259   0.162   0.208   0.189   0.228   0.288   0.198   0.201   0.302   0.195   0.235   0.368   0.410   0.220   0.278   0.305   0.183   0.221   0.224   0.288   0.189   0.302   0.226
    41.00    0.162   0.191   0.283   0.239   0.199   0.215   0.217   0.225   0.223   0.187   0.236   0.219   0.243   0.219   0.245   0.281   0.190   0.240   0.236   0.180   0.254   0.190   0.228   0.184   0.228   0.199   0.217   0.220   0.221   0.240   0.236   0.288   0.199   0.278   0.176   0.191   0.227   0.204   0.222   0.257   0.195   0.219   0.245   0.212   0.245   0.230   0.291   0.393   0.358   0.360   0.236   0.182   0.223   0.181   0.185   0.209   0.227   0.286   0.271
    36.00    0.218   0.284   0.276   0.231   0.200   0.205   0.244   0.206   0.249   0.305   0.244   0.203   0.202   0.203   0.221   0.189   0.212   0.262   0.265   0.267   0.264   0.150   0.187   0.191   0.295   0.228   0.245   0.235   0.229   0.205   0.226   0.308   0.238   0.283   0.250   0.241   0.188   0.191   0.209   0.268   0.172   0.239   0.225   0.181   0.231   0.257   0.192   0.250   0.317   0.352   0.204   0.353   0.397   0.381   0.301   0.180   0.206   0.239   0.184
    31.00    0.176   0.197   0.278   0.173   0.227   0.228   0.271   0.237   0.203   0.304   0.217   0.203   0.202   0.268   0.276   0.306   0.330   0.261   0.201   0.256   0.316   0.254   0.188   0.325   0.317   0.301   0.254   0.193   0.192   0.202   0.224   0.210   0.276   0.244   0.173   0.248   0.163   0.205   0.187   0.285   0.309   0.263   0.241   0.240   0.222   0.182   0.195   0.198   0.230   0.275   0.187   0.332   0.389   0.297   0.202   0.270   0.196   0.186   0.279
    26.00    0.249   0.236   0.210   0.300   0.328   0.198   0.263   0.198   0.256   0.282   0.258   0.264   0.194   0.248   0.175   0.260   0.183   0.247   0.205   0.242   0.169   0.254   0.323   0.337   0.316   0.192   0.253   0.160   0.248   0.212   0.172   0.228   0.290   0.326   0.235   0.247   0.256   0.202   0.234   0.276   0.255   0.160   0.186   0.228   0.216   0.229   0.222   0.267   0.205   0.176   0.264   0.349   0.350   0.301   0.188   0.268   0.385   0.222   0.302
    21.00    0.215   0.193   0.188   0.239   0.292   0.195   0.252   0.308   0.378   0.218   0.188   0.291   0.323   0.239   0.198   0.319   0.263   0.177   0.283   0.189   0.181   0.213   0.266   0.280   0.302   0.188   0.177   0.201   0.302   0.260   0.314   0.318   0.273   0.240   0.283   0.199   0.233   0.253   0.167   0.194   0.233   0.257   0.258   0.170   0.308   0.279   0.254   0.206   0.224   0.222   0.237   0.321   0.249   0.293   0.184   0.280   0.330   0.299   0.274
    16.00    0.282   0.249   0.265   0.171   0.253   0.275   0.199   0.241   0.343   0.279   0.258   0.245   0.266   0.261   0.282   0.268   0.244   0.276   0.297   0.195   0.242   0.242   0.216   0.274   0.356   0.194   0.167   0.187   0.287   0.327   0.236   0.247   0.227   0.291   0.190   0.208   0.166   0.219   0.206   0.224   0.183   0.209   0.290   0.331   0.353   0.257   0.197   0.230   0.181   0.234   0.233   0.284   0.272   0.263   0.218   0.199   0.242   0.186   0.197
    11.00    0.244   0.284   0.209   0.223   0.227   0.184   0.272   0.236   0.313   0.330   0.274   0.348   0.225   0.315   0.165   0.192   0.231   0.234   0.190   0.208   0.231   0.205   0.295   0.370   0.358   0.253   0.203   0.314   0.306   0.220   0.320   0.223   0.198   0.237   0.298   0.175   0.225   0.230   0.190   0.277   0.303   0.259   0.324   0.207   0.332   0.256   0.228   0.276   0.351   0.414   0.348   0.253   0.245   0.190   0.177   0.185   0.187   0.208   0.199
     6.00    0.275   0.250   0.259   0.238   0.274   0.189   0.287   0.334   0.268   0.246   0.290   0.322   0.343   0.310   0.311   0.270   0.283   0.200   0.186   0.221   0.194   0.274   0.310   0.287   0.269   0.226   0.276   0.344   0.206   0.187   0.302   0.267   0.263   0.220   0.304   0.169   0.232   0.200   0.190   0.285   0.193   0.157   0.246   0.338   0.369   0.243   0.205   0.289   0.360   0.382   0.370   0.184   0.235   0.212   0.224   0.314   0.175   0.232   0.241
     1.00    0.253   0.232   0.191   0.268   0.312   0.337   0.220   0.298   0.213   0.270   0.222   0.250   0.248   0.296   0.325   0.359   0.162   0.246   0.204   0.186   0.196   0.246   0.261   0.178   0.253   0.289   0.222   0.246   0.301   0.221   0.286   0.307   0.210   0.237   0.252   0.317   0.185   0.251   0.181   0.202   0.264   0.324   0.239   0.228   0.301   0.338   0.215   0.213   0.290   0.268   0.305   0.190   0.270   0.170   0.248   0.302   0.212   0.204   0.262

   Height   Standard deviation at grid points for the v component:
   301.00    0.255   0.263   0.198   0.267   0.233   0.292   0.303   0.214   0.221   0.258   0.258   0.230   0.246   0.196   0.272   0.276   0.310   0.345   0.379   0.401   0.373   0.390   0.255   0.262   0.263   0.316   0.274   0.283   0.305   0.221   0.308   0.285   0.223   0.188   0.228   0.258   0.250   0.337   0.388   0.402   0.178   0.309   0.170   0.269   0.273   0.254   0.207   0.284   0.340   0.351   0.217   0.365   0.339   0.284   0.337   0.378   0.337   0.265   0.277
   296.00    0.243   0.229   0.239   0.214   0.191   0.242   0.253   0.213   0.242   0.185   0.215   0.252   0.231   0.276   0.248   0.215   0.243   0.265   0.365   0.342   0.337   0.303   0.274   0.239   0.275   0.292   0.324   0.256   0.302   0.254   0.342   0.259   0.257   0.288   0.317   0.322   0.236   0.242   0.281   0.340   0.267   0.300   0.370   0.243   0.237   0.214   0.281   0.355   0.314   0.313   0.289   0.377   0.365   0.207   0.227   0.335   0.246   0.328   0.372
   291.00    0.356   0.252   0.187   0.226   0.258   0.296   0.211   0.219   0.227   0.263   0.345   0.242   0.254   0.209   0.258   0.185   0.258   0.291   0.356   0.334   0.363   0.243   0.223   0.248   0.233   0.309   0.341   0.346   0.207   0.267   0.294   0.199   0.268   0.267   0.238   0.235   0.244   0.208   0.244   0.221   0.259   0.366   0.333   0.275   0.217   0.203   0.297   0.270   0.270   0.253   0.253   0.264   0.266   0.238   0.274   0.255   0.316   0.332   0.325
   286.00    0.344   0.359   0.344   0.227   0.240   0.243   0.193   0.265   0.191   0.278   0.324   0.215   0.235   0.220   0.210   0.273   0.326   0.276   0.305   0.358   0.403   0.375   0.318   0.378   0.382   0.211   0.321   0.366   0.204   0.275   0.269   0.176   0.285   0.307   0.270   0.214   0.257   0.208   0.258   0.249   0.280   0.255   0.333   0.169   0.188   0.256   0.243   0.254   0.236   0.218   0.271   0.209   0.228   0.257   0.300   0.358   0.320   0.282   0.237
   281.00    0.285   0.243   0.262   0.281   0.268   0.241   0.268   0.214   0.271   0.342   0.257   0.224   0.191   0.277   0.293   0.329   0.358   0.255   0.253   0.319   0.396   0.325   0.253   0.307   0.317   0.236   0.326   0.357   0.248   0.231   0.321   0.421   0.260   0.211   0.252   0.305   0.399   0.414   0.252   0.214   0.251   0.192   0.210   0.235   0.266   0.313   0.194   0.302   0.295   0.211   0.253   0.258   0.296   0.175   0.242   0.306   0.285   0.196   0.267
   276.00    0.305   0.262   0.227   0.239   0.244   0.279   0.326   0.178   0.239   0.260   0.219   0.255   0.268   0.268   0.245   0.275   0.253   0.307   0.359   0.217   0.363   0.288   0.287   0.251   0.241   0.246   0.332   0.263   0.184   0.215   0.325   0.393   0.307   0.288   0.282   0.244   0.316   0.382   0.216   0.191   0.241   0.211   0.276   0.354   0.363   0.351   0.250   0.265   0.209   0.308   0.303   0.220   0.289   0.229   0.175   0.299   0.376   0.343   0.232
   271.00    0.301   0.242   0.216   0.221   0.319   0.329   0.265   0.282   0.222   0.266   0.271   0.208   0.190   0.226   0.201   0.269   0.245   0.323   0.319   0.293   0.385   0.236   0.322   0.416   0.401   0.221   0.342   0.279   0.264   0.354   0.330   0.374   0.190   0.238   0.229   0.284   0.239   0.323   0.220   0.293   0.296   0.254   0.268   0.323   0.199   0.318   0.208   0.238   0.336   0.375   0.282   0.314   0.311   0.374   0.268   0.315   0.310   0.335   0.235
   266.00    0.306   0.362   0.231   0.187   0.294   0.255   0.264   0.334   0.232   0.302   0.197   0.219   0.312   0.287   0.232   0.282   0.274   0.240   0.322   0.194   0.355   0.276   0.251   0.305   0.348   0.250   0.321   0.220   0.305   0.368   0.231   0.330   0.251   0.326   0.374   0.238   0.276   0.306   0.190   0.308   0.221   0.220   0.198   0.279   0.232   0.356   0.346   0.294   0.343   0.338   0.358   0.266   0.196   0.256   0.291   0.341   0.219   0.273   0.249
   261.00    0.218   0.290   0.192   0.310   0.327   0.229   0.286   0.263   0.332   0.244   0.252   0.247   0.312   0.245   0.233   0.240   0.260   0.273   0.255   0.362   0.337   0.362   0.463   0.229   0.273   0.298   0.272   0.214   0.268   0.282   0.360   0.249   0.293   0.318   0.242   0.232   0.239   0.173   0.269   0.234   0.277   0.276   0.275   0.331   0.349   0.454   0.265   0.203   0.236   0.319   0.359   0.254   0.261   0.189   0.256   0.274   0.269   0.225   0.214
   256.00    0.259   0.264   0.290   0.313   0.302   0.238   0.298   0.301   0.305   0.243   0.247   0.262   0.246   0.210   0.286   0.214   0.269   0.296   0.243   0.343   0.321   0.235   0.362   0.442   0.305   0.231   0.297   0.226   0.194   0.318   0.339   0.329   0.217   0.267   0.265   0.258   0.292   0.292   0.255   0.278   0.295   0.294   0.244   0.246   0.372   0.402   0.392   0.187   0.262   0.236   0.283   0.220   0.227   0.270   0.198   0.194   0.206   0.253   0.312
   251.00    0.211   0.245   0.262   0.348   0.262   0.322   0.272   0.226   0.281   0.330   0.260   0.229   0.326   0.332   0.220   0.227   0.231   0.255   0.258   0.338   0.218   0.251   0.327   0.429   0.305   0.416   0.443   0.261   0.389   0.391   0.259   0.280   0.259   0.228   0.211   0.244   0.211   0.323   0.340   0.376   0.168   0.217   0.233   0.312   0.274   0.345   0.323   0.286   0.256   0.210   0.217   0.292   0.287   0.265   0.340   0.312   0.262   0.268   0.278
   246.00    0.265   0.261   0.219   0.232   0.312   0.358   0.244   0.257   0.262   0.309   0.293   0.288   0.287   0.281   0.276   0.206   0.217   0.264   0.229   0.255   0.346   0.381   0.305   0.352   0.334   0.411   0.436   0.427   0.366   0.339   0.324   0.286   0.317   0.257   0.240   0.246   0.244   0.385   0.286   0.244   0.285   0.175   0.279   0.377   0.327   0.358   0.203   0.257   0.224   0.265   0.229   0.249   0.268   0.274   0.248   0.241   0.196   0.259   0.194
   241.00    0.346   0.343   0.232   0.221   0.282   0.248   0.290   0.188   0.288   0.238   0.314   0.353   0.196   0.198   0.314   0.385   0.414   0.296   0.229   0.233   0.335   0.378   0.213   0.241   0.343   0.362   0.318   0.337   0.245   0.270   0.310   0.227   0.293   0.221   0.290   0.251   0.227   0.366   0.422   0.251   0.266   0.262   0.295   0.363   0.239   0.299   0.301   0.215   0.230   0.205   0.251   0.260   0.258   0.218   0.222   0.215   0.204   0.242   0.284
   236.00    0.332   0.244   0.318   0.305   0.274   0.252   0.193   0.283   0.250   0.256   0.264   0.294   0.276   0.303   0.281   0.320   0.292   0.338   0.250   0.208   0.288   0.341   0.249   0.213   0.285   0.349   0.179   0.251   0.239   0.249   0.244   0.270   0.238   0.203   0.206   0.297   0.279   0.384   0.378   0.277   0.283   0.209   0.235   0.312   0.174   0.253   0.222   0.247   0.282   0.235   0.286   0.325   0.349   0.231   0.277   0.286   0.221   0.221   0.279
   231.00    0.322   0.206   0.242   0.287   0.256   0.210   0.202   0.272   0.391   0.312   0.246   0.238   0.336   0.218   0.268   0.310   0.293   0.266   0.238   0.250   0.261   0.304   0.202   0.208   0.300   0.317   0.278   0.220   0.213   0.283   0.216   0.247   0.214   0.246   0.244   0.264   0.312   0.343   0.329   0.267   0.288   0.213   0.243   0.194   0.269   0.348   0.210   0.228   0.256   0.264   0.352   0.393   0.392   0.201   0.250   0.237   0.223   0.268   0.205
   226.00    0.306   0.228   0.247   0.344   0.355   0.335   0.241   0.262   0.324   0.374   0.264   0.219   0.293   0.329   0.200   0.196   0.244   0.286   0.194   0.269   0.226   0.264   0.260   0.248   0.238   0.230   0.233   0.312   0.216   0.202   0.265   0.268   0.272   0.255   0.219   0.194   0.260   0.233   0.285   0.239   0.353   0.349   0.212   0.267   0.363   0.295   0.188   0.281   0.231   0.299   0.372   0.324   0.314   0.328   0.213   0.287   0.204   0.210   0.228
   221.00    0.310   0.262   0.276   0.226   0.271   0.295   0.220   0.237   0.261   0.355   0.327   0.270   0.336   0.222   0.218   0.289   0.296   0.199   0.278   0.219   0.255   0.371   0.204   0.216   0.254   0.232   0.324   0.281   0.232   0.205   0.246   0.298   0.286   0.235   0.296   0.228   0.278   0.237   0.245   0.292   0.316   0.366   0.297   0.300   0.356   0.283   0.249   0.314   0.313   0.273   0.303   0.353   0.319   0.264   0.222   0.320   0.314   0.281   0.204
   216.00    0.369   0.227   0.317   0.355   0.351   0.302   0.214   0.212   0.213   0.259   0.357   0.355   0.394   0.206   0.288   0.362   0.247   0.251   0.237   0.205   0.290   0.315   0.317   0.308   0.243   0.212   0.254   0.358   0.226   0.249   0.236   0.183   0.263   0.307   0.328   0.248   0.288   0.176   0.234   0.204   0.279   0.329   0.292   0.237   0.229   0.250   0.285   0.310   0.260   0.250   0.299   0.330   0.327   0.186   0.264   0.318   0.275   0.334   0.196
   211.00    0.350   0.293   0.277   0.286   0.246   0.206   0.261   0.321   0.218   0.266   0.262   0.321   0.280   0.259   0.224   0.271   0.346   0.384   0.241   0.212   0.260   0.309   0.254   0.282   0.242   0.365   0.363   0.338   0.291   0.221   0.236   0.308   0.232   0.254   0.329   0.265   0.272   0.285   0.239   0.243   0.259   0.314   0.317   0.254   0.261   0.252   0.319   0.304   0.204   0.257   0.223   0.256   0.227   0.249   0.231   0.201   0.210   0.243   0.275
   206.00    0.328   0.230   0.260   0.213   0.197   0.293   0.347   0.261   0.237   0.190   0.223   0.318   0.231   0.206   0.289   0.254   0.216   0.332   0.349   0.302   0.286   0.264   0.261   0.265   0.217   0.322   0.202   0.327   0.255   0.215   0.210   0.272   0.239   0.239   0.330   0.392   0.180   0.218   0.257   0.322   0.369   0.336   0.285   0.310   0.286   0.348   0.338   0.201   0.228   0.218   0.313   0.216   0.228   0.226   0.191   0.249   0.294   0.295   0.195
   201.00    0.310   0.229   0.197   0.269   0.289   0.344   0.255   0.291   0.223   0.267   0.229   0.342   0.365   0.319   0.316   0.367   0.245   0.238   0.307   0.277   0.259   0.252   0.247   0.285   0.227   0.248   0.258   0.281   0.310   0.278   0.302   0.345   0.213   0.229   0.273   0.297   0.278   0.265   0.287   0.336   0.293   0.230   0.246   0.265   0.273   0.315   0.208   0.298   0.324   0.353   0.314   0.268   0.266   0.299   0.249   0.248   0.344   0.364   0.314
   196.00    0.263   0.295   0.269   0.251   0.333   0.229   0.313   0.231   0.311   0.342   0.343   0.328   0.290   0.247   0.193   0.285   0.284   0.245   0.297   0.228   0.278   0.197   0.299   0.197   0.363   0.384   0.366   0.197   0.232   0.222   0.302   0.215   0.223   0.240   0.241   0.199   0.232   0.285   0.286   0.239   0.239   0.208   0.272   0.194   0.307   0.208   0.284   0.220   0.224   0.289   0.338   0.433   0.439   0.290   0.259   0.245   0.248   0.324   0.262
   191.00    0.242   0.235   0.212   0.269   0.350   0.309   0.337   0.179   0.225   0.275   0.265   0.213   0.217   0.295   0.195   0.300   0.359   0.270   0.210   0.231   0.209   0.261   0.302   0.356   0.351   0.318   0.210   0.299   0.194   0.221   0.275   0.209   0.287   0.207   0.202   0.233   0.218   0.233   0.218   0.238   0.251   0.281   0.204   0.234   0.358   0.235   0.264   0.384   0.297   0.297   0.288   0.295   0.377   0.325   0.178   0.215   0.289   0.275   0.334
   186.00    0.333   0.336   0.198   0.306   0.329   0.225   0.223   0.227   0.204   0.237   0.246   0.333   0.218   0.281   0.255   0.264   0.260   0.330   0.337   0.204   0.263   0.197   0.216   0.249   0.256   0.289   0.211   0.311   0.266   0.283   0.239   0.248   0.218   0.257   0.290   0.202   0.262   0.228   0.231   0.236   0.247   0.258   0.209   0.289   0.298   0.374   0.438   0.415   0.476   0.444   0.319   0.351   0.292   0.306   0.265   0.215   0.238   0.306   0.341
   181.00    0.372   0.227   0.239   0.275   0.216   0.272   0.228   0.223   0.270   0.293   0.282   0.250   0.361   0.365   0.249   0.350   0.260   0.297   0.282   0.209   0.220   0.246   0.301   0.292   0.267   0.195   0.221   0.264   0.281   0.278   0.187   0.223   0.273   0.236   0.276   0.245   0.290   0.221   0.214   0.272   0.260   0.294   0.267   0.331   0.187   0.352   0.277   0.416   0.402   0.413   0.447   0.270   0.225   0.206   0.259   0.177   0.218   0.212   0.265
   176.00    0.321   0.259   0.250   0.207   0.260   0.236   0.283   0.312   0.263   0.220   0.213   0.286   0.320   0.275   0.324   0.279   0.219   0.214   0.254   0.365   0.372   0.255   0.248   0.256   0.249   0.278   0.290   0.241   0.229   0.257   0.269   0.229   0.353   0.283   0.328   0.223   0.240   0.224   0.264   0.262   0.301   0.222   0.289   0.190   0.247   0.324   0.358   0.350   0.319   0.397   0.468   0.260   0.200   0.293   0.251   0.276   0.211   0.252   0.294
   171.00    0.294   0.297   0.208   0.278   0.364   0.199   0.205   0.220   0.258   0.249   0.256   0.302   0.287   0.340   0.279   0.219   0.303   0.208   0.214   0.288   0.296   0.251   0.181   0.264   0.205   0.291   0.360   0.199   0.218   0.248   0.244   0.255   0.385   0.387   0.342   0.219   0.202   0.258   0.341   0.384   0.337   0.345   0.216   0.328   0.334   0.247   0.374   0.221   0.309   0.337   0.342   0.374   0.264   0.269   0.312   0.206   0.197   0.309   0.220
   166.00    0.311   0.224   0.268   0.249   0.311   0.375   0.235   0.309   0.262   0.376   0.454   0.270   0.305   0.332   0.270   0.259   0.233   0.224   0.193   0.286   0.241   0.269   0.333   0.278   0.300   0.333   0.272   0.218   0.328   0.316   0.231   0.290   0.334   0.288   0.298   0.221   0.250   0.223   0.215   0.267   0.281   0.253   0.281   0.329   0.225   0.354   0.465   0.483   0.250   0.237   0.270   0.314   0.205   0.196   0.257   0.288   0.276   0.307   0.292
   161.00    0.345   0.241   0.216   0.249   0.310   0.324   0.367   0.375   0.357   0.392   0.383   0.370   0.291   0.225   0.200   0.331   0.221   0.243   0.303   0.291   0.200   0.253   0.247   0.319   0.273   0.283   0.252   0.259   0.315   0.281   0.288   0.239   0.245   0.246   0.216   0.331   0.195   0.254   0.266   0.193   0.234   0.246   0.304   0.295   0.270   0.471   0.386   0.414   0.319   0.356   0.212   0.258   0.200   0.217   0.290   0.172   0.204   0.279   0.213
   156.00    0.327   0.218   0.266   0.255   0.257   0.227   0.350   0.403   0.277   0.275   0.336   0.248   0.275   0.235   0.206   0.334   0.356   0.251   0.294   0.311   0.188   0.228   0.194   0.276   0.255   0.228   0.268   0.267   0.247   0.199   0.232   0.181   0.289   0.348   0.383   0.292   0.237   0.246   0.311   0.186   0.254   0.227   0.263   0.414   0.512   0.546   0.413   0.399   0.273   0.276   0.353   0.254   0.215   0.351   0.339   0.276   0.284   0.220   0.338
   151.00    0.308   0.219   0.199   0.226   0.216   0.225   0.315   0.378   0.381   0.264   0.327   0.331   0.311   0.278   0.250   0.266   0.278   0.214   0.286   0.215   0.294   0.264   0.236   0.333   0.219   0.340   0.395   0.263   0.273   0.342   0.426   0.378   0.277   0.262   0.283   0.250   0.226   0.255   0.332   0.248   0.219   0.313   0.247   0.358   0.429   0.446   0.406   0.201   0.214   0.236   0.225   0.226   0.279   0.354   0.260   0.222   0.289   0.260   0.292
   146.00    0.252   0.234   0.286   0.233   0.331   0.319   0.340   0.387   0.304   0.239   0.308   0.302   0.246   0.258   0.285   0.227   0.278   0.238   0.228   0.280   0.244   0.287   0.296   0.253   0.293   0.268   0.325   0.250   0.305   0.381   0.364   0.375   0.267   0.194   0.244   0.216   0.260   0.257   0.309   0.418   0.237   0.337   0.315   0.322   0.297   0.337   0.335   0.265   0.267   0.218   0.238   0.242   0.287   0.321   0.392   0.399   0.406   0.329   0.290
   141.00    0.321   0.244   0.345   0.245   0.277   0.303   0.349   0.348   0.345   0.211   0.326   0.243   0.198   0.202   0.315   0.239   0.268   0.213   0.251   0.334   0.265   0.282   0.243   0.227   0.307   0.215   0.305   0.285   0.248   0.273   0.258   0.277   0.256   0.254   0.278   0.233   0.226   0.225   0.290   0.322   0.353   0.230   0.270   0.289   0.212   0.208   0.228   0.237   0.241   0.247   0.304   0.235   0.280   0.208   0.295   0.252   0.343   0.377   0.221
   136.00    0.204   0.260   0.296   0.291   0.303   0.241   0.223   0.256   0.366   0.419   0.330   0.276   0.224   0.226   0.287   0.303   0.292   0.233   0.200   0.281   0.379   0.298   0.267   0.247   0.301   0.233   0.223   0.258   0.260   0.286   0.354   0.201   0.237   0.237   0.271   0.215   0.245   0.212   0.233   0.273   0.275   0.258   0.232   0.246   0.226   0.315   0.240   0.228   0.272   0.293   0.269   0.219   0.254   0.232   0.251   0.277   0.333   0.357   0.288
   131.00    0.295   0.188   0.187   0.245   0.222   0.258   0.211   0.289   0.302   0.351   0.268   0.352   0.346   0.246   0.266   0.252   0.260   0.244   0.226   0.313   0.408   0.197   0.196   0.219   0.236   0.207   0.237   0.230   0.214   0.281   0.264   0.315   0.188   0.329   0.270   0.213   0.360   0.224   0.336   0.310   0.213   0.298   0.250   0.338   0.333   0.289   0.287   0.321   0.284   0.275   0.230   0.291   0.257   0.282   0.227   0.292   0.289   0.310   0.387
   126.00    0.306   0.234   0.249   0.287   0.243   0.372   0.238   0.239   0.212   0.235   0.218   0.281   0.281   0.260   0.206   0.237   0.231   0.302   0.277   0.209   0.333   0.376   0.234   0.233   0.213   0.231   0.302   0.394   0.371   0.321   0.221   0.218   0.253   0.277   0.335   0.359   0.388   0.333   0.369   0.336   0.188   0.215   0.221   0.226   0.267   0.191   0.258   0.217   0.268   0.285   0.232   0.194   0.250   0.227   0.223   0.268   0.323   0.318   0.381
   121.00    0.268   0.267   0.282   0.327   0.370   0.427   0.272   0.279   0.215   0.211   0.257   0.269   0.221   0.221   0.258   0.254   0.218   0.293   0.267   0.288   0.310   0.288   0.323   0.254   0.220   0.299   0.247   0.272   0.271   0.232   0.308   0.384   0.197   0.241   0.274   0.326   0.315   0.244   0.381   0.267   0.200   0.228   0.207   0.300   0.278   0.270   0.360   0.159   0.301   0.309   0.194   0.311   0.313   0.269   0.231   0.312   0.232   0.281   0.287
   116.00    0.295   0.218   0.298   0.377   0.353   0.369   0.354   0.275   0.235   0.219   0.279   0.258   0.190   0.300   0.324   0.322   0.340   0.324   0.273   0.368   0.231   0.237   0.262   0.242   0.310   0.252   0.277   0.207   0.292   0.189   0.275   0.333   0.299   0.331   0.202   0.221   0.293   0.398   0.393   0.346   0.252   0.227   0.244   0.290   0.247   0.180   0.307   0.219   0.270   0.234   0.265   0.313   0.310   0.256   0.312   0.356   0.199   0.249   0.255
   111.00    0.255   0.287   0.200   0.332   0.246   0.247   0.288   0.303   0.341   0.216   0.216   0.195   0.260   0.260   0.210   0.254   0.242   0.195   0.249   0.274   0.250   0.250   0.273   0.236   0.253   0.192   0.275   0.295   0.200   0.293   0.245   0.320   0.395   0.402   0.325   0.187   0.243   0.334   0.381   0.378   0.188   0.297   0.206   0.258   0.288   0.241   0.294   0.340   0.226   0.218   0.246   0.304   0.319   0.177   0.269   0.265   0.322   0.246   0.246
   106.00    0.243   0.210   0.292   0.325   0.236   0.268   0.260   0.232   0.294   0.245   0.247   0.200   0.220   0.239   0.288   0.321   0.316   0.276   0.290   0.213   0.243   0.237   0.217   0.222   0.244   0.243   0.190   0.196   0.259   0.258   0.293   0.425   0.408   0.362   0.340   0.283   0.318   0.324   0.338   0.274   0.266   0.320   0.311   0.292   0.190   0.247   0.272   0.222   0.269   0.290   0.215   0.302   0.210   0.273   0.258   0.208   0.214   0.277   0.202
   101.00    0.242   0.220   0.232   0.261   0.201   0.268   0.239   0.279   0.266   0.181   0.251   0.284   0.232   0.264   0.261   0.202   0.246   0.345   0.284   0.354   0.193   0.261   0.307   0.252   0.244   0.216   0.241   0.272   0.252   0.246   0.315   0.375   0.397   0.233   0.307   0.199   0.208   0.224   0.252   0.279   0.345   0.321   0.382   0.450   0.230   0.230   0.245   0.327   0.378   0.363   0.247   0.307   0.348   0.273   0.189   0.233   0.271   0.268   0.332
    96.00    0.209   0.186   0.331   0.257   0.354   0.242   0.237   0.257   0.174   0.339   0.235   0.245   0.244   0.269   0.218   0.272   0.313   0.380   0.293   0.310   0.395   0.181   0.247   0.237   0.211   0.294   0.214   0.273   0.245   0.267   0.240   0.352   0.273   0.221   0.265   0.236   0.244   0.202   0.258   0.265   0.362   0.369   0.307   0.382   0.377   0.269   0.272   0.249   0.389   0.316   0.216   0.223   0.301   0.314   0.187   0.240   0.259   0.300   0.326
    91.00    0.330   0.240   0.360   0.431   0.416   0.266   0.203   0.218   0.312   0.363   0.263   0.318   0.245   0.301   0.230   0.208   0.255   0.275   0.255   0.330   0.357   0.226   0.276   0.306   0.271   0.283   0.241   0.214   0.247   0.197   0.310   0.362   0.216   0.257   0.224   0.250   0.276   0.293   0.234   0.236   0.300   0.222   0.344   0.386   0.407   0.221   0.237   0.297   0.419   0.457   0.285   0.333   0.179   0.315   0.315   0.321   0.178   0.348   0.194
    86.00    0.286   0.246   0.289   0.332   0.318   0.339   0.267   0.180   0.232   0.300   0.348   0.277   0.205   0.252   0.240   0.241   0.201   0.244   0.266   0.311   0.291   0.254   0.265   0.271   0.191   0.287   0.214   0.232   0.212   0.232   0.225   0.281   0.260   0.272   0.257   0.224   0.213   0.256   0.264   0.185   0.222   0.321   0.302   0.326   0.370   0.280   0.316   0.254   0.409   0.436   0.411   0.289   0.310   0.328   0.224   0.270   0.256   0.313   0.363
    81.00    0.245   0.219   0.230   0.298   0.249   0.313   0.269   0.326   0.368   0.223   0.253   0.281   0.191   0.277   0.246   0.279   0.299   0.179   0.304   0.316   0.301   0.355   0.217   0.228   0.223   0.268   0.218   0.262   0.232   0.200   0.239   0.258   0.260   0.235   0.257   0.373   0.292   0.211   0.276   0.329   0.362   0.383   0.400   0.181   0.288   0.360   0.239   0.356   0.411   0.314   0.388   0.465   0.223   0.330   0.322   0.286   0.230   0.209   0.302
    76.00    0.225   0.225   0.224   0.244   0.259   0.224   0.303   0.395   0.274   0.300   0.346   0.405   0.234   0.295   0.323   0.175   0.261   0.236   0.270   0.231   0.304   0.278   0.376   0.214   0.164   0.226   0.250   0.207   0.218   0.312   0.309   0.309   0.326   0.190   0.308   0.284   0.278   0.259   0.271   0.359   0.306   0.315   0.330   0.254   0.286   0.276   0.305   0.338   0.342   0.317   0.380   0.424   0.394   0.215   0.268   0.418   0.454   0.254   0.343
    71.00    0.346   0.284   0.201   0.238   0.206   0.239   0.288   0.373   0.256   0.314   0.203   0.318   0.352   0.235   0.282   0.237   0.279   0.357   0.348   0.249   0.310   0.411   0.292   0.224   0.333   0.361   0.366   0.204   0.291   0.299   0.301   0.397   0.317   0.276   0.259   0.268   0.291   0.231   0.244   0.277   0.232   0.210   0.234   0.269   0.303   0.277   0.221   0.262   0.320   0.389   0.428   0.417   0.220   0.328   0.350   0.339   0.361   0.360   0.357
    66.00    0.398   0.340   0.315   0.244   0.355   0.215   0.305   0.319   0.291   0.307   0.209   0.337   0.271   0.268   0.327   0.302   0.229   0.327   0.247   0.244   0.298   0.428   0.361   0.345   0.275   0.222   0.265   0.277   0.332   0.226   0.258   0.310   0.266   0.265   0.218   0.212   0.224   0.229   0.256   0.261   0.264   0.298   0.285   0.342   0.263   0.178   0.257   0.289   0.211   0.257   0.294   0.348   0.273   0.275   0.212   0.257   0.318   0.382   0.273
    61.00    0.353   0.378   0.402   0.279   0.400   0.346   0.337   0.259   0.229   0.306   0.313   0.354   0.354   0.364   0.347   0.311   0.226   0.306   0.276   0.309   0.273   0.344   0.356   0.306   0.227   0.356   0.258   0.219   0.287   0.375   0.203   0.259   0.196   0.211   0.254   0.305   0.201   0.342   0.316   0.220   0.215   0.222   0.253   0.252   0.288   0.289   0.264   0.272   0.205   0.242   0.228   0.270   0.178   0.317   0.307   0.323   0.314   0.363   0.364
    56.00    0.265   0.343   0.361   0.299   0.342   0.332   0.310   0.287   0.227   0.273   0.277   0.281   0.273   0.329   0.293   0.239   0.239   0.260   0.313   0.369   0.281   0.251   0.262   0.362   0.254   0.291   0.276   0.256   0.263   0.304   0.323   0.237   0.248   0.299   0.279   0.280   0.334   0.321   0.319   0.367   0.314   0.241   0.191   0.295   0.314   0.181   0.231   0.271   0.259   0.207   0.195   0.273   0.295   0.353   0.238   0.275   0.239   0.338   0.309
    51.00    0.226   0.329   0.416   0.252   0.274   0.297   0.312   0.241   0.304   0.235   0.299   0.387   0.204   0.272   0.265   0.226   0.258   0.268   0.276   0.372   0.416   0.218   0.200   0.291   0.289   0.224   0.198   0.226   0.293   0.312   0.303   0.203   0.226   0.248   0.243   0.240   0.271   0.316   0.199   0.265   0.306   0.241   0.216   0.191   0.357   0.223   0.274   0.233   0.213   0.226   0.320   0.357   0.200   0.300   0.368   0.385   0.382   0.407   0.239
    46.00    0.215   0.271   0.301   0.350   0.331   0.317   0.274   0.294   0.274   0.242   0.276   0.359   0.351   0.209   0.224   0.229   0.224   0.210   0.245   0.300   0.306   0.310   0.290   0.229   0.265   0.226   0.302   0.216   0.298   0.268   0.354   0.236   0.321   0.211   0.229   0.233   0.253   0.290   0.201   0.234   0.285   0.231   0.269   0.322   0.348   0.338   0.279   0.231   0.272   0.260   0.238   0.351   0.264   0.245   0.291   0.293   0.352   0.283   0.331
    41.00    0.305   0.209   0.212   0.286   0.207   0.256   0.271   0.205   0.192   0.329   0.248   0.268   0.267   0.309   0.247   0.172   0.254   0.189   0.271   0.295   0.210   0.194   0.318   0.257   0.272   0.325   0.303   0.293   0.315   0.333   0.387   0.333   0.319   0.272   0.284   0.271   0.249   0.221   0.226   0.239   0.248   0.193   0.209   0.263   0.286   0.319   0.302   0.207   0.249   0.197   0.235   0.311   0.368   0.316   0.307   0.276   0.299   0.311   0.215
    36.00    0.403   0.285   0.203   0.215   0.268   0.217   0.233   0.295   0.344   0.459   0.278   0.238   0.248   0.328   0.301   0.253   0.290   0.279   0.203   0.221   0.232   0.300   0.380   0.231   0.262   0.269   0.190   0.318   0.260   0.361   0.251   0.267   0.318   0.186   0.226   0.259   0.262   0.249   0.228   0.270   0.216   0.293   0.306   0.294   0.257   0.234   0.267   0.207   0.229   0.239   0.189   0.289   0.359   0.288   0.197   0.273   0.247   0.221   0.227
    31.00    0.377   0.442   0.397   0.355   0.213   0.242   0.231   0.178   0.342   0.418   0.465   0.432   0.329   0.303   0.333   0.308   0.337   0.303   0.264   0.277   0.251   0.230   0.337   0.301   0.247   0.222   0.226   0.227   0.348   0.396   0.253   0.276   0.317   0.225   0.204   0.253   0.210   0.247   0.215   0.282   0.222   0.262   0.210   0.237   0.230   0.317   0.245   0.292   0.214   0.208   0.262   0.271   0.283   0.284   0.272   0.194   0.219   0.250   0.207
    26.00    0.373   0.397   0.335   0.211   0.242   0.246   0.264   0.369   0.328   0.359   0.373   0.344   0.369   0.201   0.298   0.284   0.267   0.222   0.324   0.371   0.217   0.264   0.226   0.260   0.255   0.222   0.177   0.251   0.371   0.269   0.403   0.436   0.310   0.338   0.324   0.301   0.228   0.227   0.226   0.281   0.256   0.216   0.270   0.268   0.278   0.219   0.250   0.244   0.243   0.300   0.313   0.274   0.243   0.300   0.241   0.339   0.225   0.224   0.280
    21.00    0.348   0.343   0.282   0.317   0.180   0.241   0.335   0.393   0.381   0.417   0.258   0.373   0.420   0.267   0.331   0.236   0.230   0.328   0.405   0.383   0.202   0.259   0.248   0.213   0.254   0.244   0.257   0.263   0.408   0.483   0.482   0.362   0.347   0.206   0.318   0.403   0.312   0.191   0.228   0.294   0.230   0.296   0.293   0.200   0.262   0.203   0.268   0.247   0.263   0.230   0.264   0.194   0.242   0.227   0.298   0.248   0.276   0.398   0.265
    16.00    0.304   0.284   0.235   0.299   0.208   0.264   0.331   0.340   0.219   0.355   0.268   0.318   0.404   0.430   0.419   0.252   0.270   0.334   0.316   0.314   0.214   0.268   0.196   0.273   0.385   0.238   0.328   0.228   0.396   0.461   0.363   0.301   0.177   0.306   0.235   0.324   0.289   0.263   0.224   0.257   0.281   0.268   0.230   0.241   0.275   0.251   0.202   0.253   0.251   0.276   0.290   0.326   0.188   0.226   0.270   0.275   0.317   0.361   0.332
    11.00    0.272   0.252   0.226   0.257   0.178   0.185   0.246   0.274   0.302   0.281   0.367   0.376   0.384   0.282   0.349   0.210   0.207   0.266   0.220   0.262   0.186   0.215   0.219   0.239   0.312   0.354   0.248   0.283   0.336   0.331   0.376   0.295   0.198   0.338   0.235   0.374   0.226   0.289   0.225   0.215   0.272   0.190   0.306   0.326   0.234   0.249   0.318   0.237   0.309   0.215   0.239   0.318   0.280   0.194   0.259   0.265   0.315   0.244   0.320
     6.00    0.197   0.308   0.224   0.260   0.290   0.269   0.341   0.375   0.206   0.313   0.236   0.319   0.205   0.322   0.367   0.205   0.222   0.198   0.196   0.229   0.270   0.180   0.222   0.243   0.273   0.262   0.256   0.225   0.238   0.333   0.232   0.287   0.212   0.319   0.303   0.342   0.336   0.316   0.181   0.223   0.274   0.273   0.360   0.358   0.266   0.207   0.264   0.300   0.333   0.241   0.313   0.315   0.273   0.250   0.288   0.294   0.307   0.260   0.256
     1.00    0.282   0.279   0.278   0.324   0.234   0.248   0.243   0.314   0.333   0.222   0.314   0.329   0.320   0.248   0.280   0.294   0.294   0.337   0.252   0.306   0.240   0.288   0.229   0.228   0.307   0.246   0.291   0.262   0.207   0.267   0.322   0.197   0.291   0.342   0.182   0.242   0.264   0.274   0.245   0.270   0.241   0.294   0.256   0.325   0.290   0.204   0.246   0.295   0.229   0.266   0.337   0.259   0.294   0.277   0.283   0.316   0.296   0.190   0.275

   Height   Standard deviation at grid points for the w component:
   301.00    0.222   0.230   0.216   0.225   0.194   0.205   0.198   0.215   0.246   0.231   0.170   0.205   0.230   0.179   0.207   0.211   0.214   0.187   0.211   0.158   0.222   0.213   0.219   0.230   0.192   0.229   0.219   0.226   0.210   0.201   0.202   0.203   0.224   0.219   0.252   0.227   0.250   0.318   0.308   0.206   0.227   0.213   0.222   0.176   0.223   0.210   0.211   0.195   0.217   0.179   0.206   0.223   0.211   0.217   0.252   0.299   0.284   0.191   0.199
   296.00    0.181   0.203   0.203   0.173   0.205   0.183   0.209   0.212   0.233   0.162   0.216   0.229   0.197   0.210   0.220   0.208   0.195   0.217   0.257   0.222   0.227   0.231   0.207   0.193   0.207   0.210   0.270   0.255   0.180   0.190   0.210   0.175   0.212   0.193   0.225   0.210   0.245   0.295   0.294   0.210   0.260   0.182   0.190   0.176   0.202   0.179   0.226   0.174   0.181   0.225   0.236   0.221   0.227   0.180   0.200   0.276   0.182   0.222   0.246
   291.00    0.191   0.230   0.192   0.230   0.202   0.178   0.190   0.208   0.212   0.181   0.203   0.187   0.169   0.194   0.219   0.203   0.175   0.212   0.209   0.182   0.185   0.186   0.168   0.234   0.159   0.181   0.223   0.235   0.186   0.180   0.193   0.223   0.182   0.175   0.172   0.179   0.226   0.260   0.282   0.260   0.279   0.244   0.185   0.198   0.221   0.216   0.229   0.194   0.217   0.178   0.207   0.234   0.284   0.256   0.201   0.247   0.224   0.202   0.216
   286.00    0.189   0.224   0.191   0.226   0.176   0.197   0.180   0.197   0.218   0.205   0.229   0.189   0.190   0.183   0.219   0.288   0.202   0.175   0.219   0.205   0.197   0.249   0.283   0.265   0.204   0.204   0.253   0.236   0.194   0.180   0.190   0.229   0.231   0.187   0.239   0.230   0.227   0.238   0.249   0.195   0.200   0.204   0.190   0.189   0.227   0.201   0.241   0.209   0.185   0.164   0.217   0.223   0.213   0.283   0.199   0.255   0.255   0.252   0.182
   281.00    0.195   0.245   0.238   0.204   0.236   0.185   0.180   0.201   0.175   0.182   0.214   0.155   0.207   0.187   0.200   0.259   0.246   0.230   0.258   0.208   0.210   0.193   0.234   0.224   0.201   0.191   0.239   0.235   0.160   0.230   0.209   0.228   0.235   0.223   0.213   0.271   0.202   0.274   0.221   0.182   0.184   0.200   0.187   0.198   0.247   0.197   0.220   0.248   0.205   0.270   0.206   0.180   0.166   0.232   0.276   0.275   0.171   0.227   0.271
   276.00    0.220   0.220   0.220   0.189   0.197   0.196   0.182   0.190   0.218   0.203   0.238   0.275   0.193   0.207   0.191   0.233   0.177   0.226   0.241   0.217   0.179   0.206   0.194   0.203   0.179   0.210   0.190   0.210   0.175   0.242   0.180   0.187   0.175   0.197   0.238   0.235   0.210   0.221   0.251   0.256   0.180   0.202   0.191   0.223   0.233   0.293   0.206   0.238   0.232   0.227   0.231   0.192   0.204   0.221   0.260   0.203   0.209   0.194   0.272
   271.00    0.224   0.167   0.191   0.191   0.161   0.213   0.214   0.194   0.235   0.187   0.196   0.253   0.245   0.193   0.183   0.219   0.222   0.242   0.198   0.225   0.227   0.247   0.224   0.195   0.190   0.216   0.196   0.199   0.215   0.226   0.237   0.251   0.186   0.197   0.196   0.246   0.176   0.187   0.219   0.206   0.228   0.165   0.196   0.214   0.199   0.228   0.268   0.300   0.275   0.226   0.192   0.177   0.186   0.202   0.232   0.190   0.180   0.196   0.234
   266.00    0.186   0.227   0.209   0.222   0.193   0.220   0.228   0.243   0.229   0.179   0.224   0.228   0.200   0.208   0.189   0.209   0.216   0.179   0.163   0.208   0.198   0.231   0.245   0.244   0.180   0.170   0.192   0.165   0.210   0.195   0.210   0.207   0.194   0.179   0.222   0.255   0.193   0.191   0.181   0.189   0.200   0.190   0.230   0.211   0.250   0.234   0.221   0.234   0.239   0.183   0.199   0.193   0.195   0.223   0.208   0.250   0.204   0.162   0.189
   261.00    0.195   0.193   0.222   0.235   0.225   0.213   0.233   0.194   0.217   0.173   0.180   0.175   0.226   0.253   0.183   0.238   0.230   0.209   0.236   0.222   0.171   0.218   0.231   0.235   0.177   0.212   0.236   0.182   0.187   0.199   0.212   0.199   0.211   0.202   0.195   0.189   0.197   0.204   0.194   0.197   0.184   0.191   0.224   0.241   0.257   0.295   0.240   0.230   0.235   0.205   0.201   0.198   0.193   0.218   0.239   0.267   0.167   0.237   0.206
   256.00    0.214   0.184   0.201   0.180   0.193   0.216   0.189   0.203   0.197   0.197   0.232   0.243   0.248   0.295   0.170   0.202   0.188   0.216   0.191   0.198   0.221   0.257   0.200   0.155   0.246   0.178   0.246   0.255   0.160   0.197   0.266   0.207   0.208   0.208   0.191   0.219   0.230   0.225   0.219   0.221   0.207   0.170   0.231   0.182   0.197   0.239   0.168   0.202   0.209   0.174   0.213   0.207   0.196   0.206   0.256   0.230   0.207   0.255   0.243
   251.00    0.165   0.227   0.241   0.186   0.179   0.191   0.211   0.207   0.261   0.256   0.262   0.182   0.214   0.235   0.256   0.172   0.207   0.224   0.214   0.243   0.206   0.250   0.198   0.243   0.256   0.265   0.228   0.211   0.196   0.194   0.213   0.200   0.197   0.167   0.205   0.207   0.225   0.197   0.174   0.208   0.217   0.189   0.235   0.238   0.179   0.195   0.236   0.179   0.184   0.176   0.228   0.215   0.191   0.237   0.305   0.276   0.292   0.274   0.192
   246.00    0.232   0.208   0.222   0.200   0.245   0.201   0.206   0.199   0.229   0.246   0.235   0.179   0.190   0.197   0.190   0.205   0.219   0.242   0.179   0.260   0.279   0.217   0.273   0.252   0.190   0.244   0.290   0.172   0.166   0.185   0.174   0.204   0.216   0.263   0.260   0.257   0.236   0.222   0.197   0.222   0.216   0.193   0.197   0.196   0.259   0.193   0.219   0.255   0.164   0.247   0.202   0.222   0.199   0.207   0.257   0.307   0.325   0.176   0.225
   241.00    0.221   0.221   0.217   0.180   0.219   0.251   0.172   0.212   0.177   0.231   0.176   0.235   0.169   0.202   0.178   0.199   0.196   0.215   0.213   0.255   0.272   0.242   0.193   0.239   0.231   0.243   0.246   0.254   0.199   0.211   0.181   0.179   0.205   0.217   0.244   0.222   0.227   0.208   0.184   0.187   0.225   0.243   0.193   0.228   0.198   0.210   0.192   0.241   0.177   0.249   0.237   0.174   0.170   0.233   0.215   0.245   0.255   0.239   0.174
   236.00    0.192   0.252   0.224   0.234   0.164   0.201   0.211   0.250   0.180   0.180   0.219   0.272   0.236   0.173   0.209   0.206   0.216   0.184   0.233   0.241   0.268   0.248   0.193   0.199   0.249   0.224   0.198   0.200   0.245   0.275   0.177   0.201   0.192   0.188   0.216   0.212   0.206   0.213   0.219   0.193   0.169   0.166   0.181   0.217   0.226   0.248   0.179   0.225   0.246   0.243   0.271   0.260   0.204   0.219   0.210   0.216   0.182   0.187   0.253
   231.00    0.202   0.240   0.213   0.202   0.181   0.195   0.171   0.217   0.212   0.171   0.225   0.249   0.245   0.244   0.176   0.181   0.219   0.221   0.196   0.222   0.216   0.219   0.224   0.182   0.183   0.203   0.198   0.211   0.219   0.229   0.208   0.216   0.219   0.183   0.188   0.254   0.217   0.208   0.198   0.223   0.234   0.225   0.188   0.191   0.236   0.181   0.255   0.281   0.190   0.197   0.221   0.209   0.183   0.194   0.185   0.258   0.236   0.268   0.289
   226.00    0.214   0.239   0.188   0.239   0.194   0.162   0.203   0.213   0.169   0.191   0.223   0.195   0.204   0.215   0.209   0.232   0.186   0.206   0.215   0.233   0.196   0.197   0.206   0.225   0.232   0.277   0.214   0.203   0.179   0.170   0.236   0.250   0.200   0.177   0.209   0.264   0.217   0.243   0.169   0.193   0.236   0.224   0.192   0.226   0.250   0.234   0.250   0.214   0.253   0.202   0.202   0.187   0.198   0.221   0.255   0.258   0.225   0.227   0.233
   221.00    0.175   0.197   0.230   0.247   0.179   0.239   0.213   0.201   0.203   0.217   0.209   0.203   0.188   0.223   0.229   0.224   0.247   0.188   0.197   0.187   0.195   0.253   0.280   0.256   0.232   0.227   0.227   0.279   0.233   0.241   0.265   0.183   0.221   0.221   0.209   0.232   0.242   0.227   0.224   0.182   0.196   0.191   0.195   0.240   0.239   0.216   0.243   0.239   0.260   0.241   0.188   0.230   0.172   0.239   0.171   0.217   0.209   0.230   0.232
[...]
   196.00    0.192   0.238   0.196   0.215   0.172   0.196   0.178   0.214   0.230   0.222   0.249   0.170   0.181   0.212   0.175   0.228   0.286   0.292   0.203   0.248   0.190   0.210   0.212   0.186   0.237   0.297   0.243   0.197   0.200   0.251   0.250   0.243   0.251   0.274   0.301   0.215   0.191   0.175   0.227   0.177   0.189   0.216   0.273   0.209   0.183   0.204   0.202   0.224   0.295   0.252   0.237   0.270   0.281   0.250   0.297   0.252   0.266   0.215   0.171
   191.00    0.256   0.229   0.195   0.169   0.233   0.244   0.226   0.214   0.209   0.190   0.221   0.197   0.204   0.215   0.220   0.210   0.199   0.234   0.254   0.266   0.257   0.191   0.200   0.183   0.206   0.239   0.197   0.231   0.228   0.252   0.282   0.207   0.258   0.280   0.226   0.247   0.163   0.206   0.231   0.167   0.197   0.218   0.243   0.183   0.168   0.174   0.250   0.225   0.231   0.255   0.257   0.236   0.242   0.185   0.224   0.232   0.195   0.208   0.180
   186.00    0.234   0.240   0.176   0.217   0.263   0.212   0.172   0.208   0.197   0.199   0.210   0.196   0.188   0.214   0.196   0.206   0.273   0.201   0.218   0.233   0.225   0.238   0.194   0.188   0.212   0.172   0.173   0.179   0.177   0.245   0.228   0.196   0.235   0.212   0.201   0.175   0.230   0.204   0.187   0.206   0.191   0.177   0.207   0.250   0.251   0.255   0.296   0.310   0.211   0.208   0.238   0.252   0.170   0.199   0.183   0.169   0.184   0.244   0.193
   181.00    0.193   0.193   0.205   0.249   0.280   0.237   0.209   0.186   0.206   0.188   0.185   0.226   0.215   0.194   0.234   0.207   0.266   0.219   0.177   0.180   0.196   0.180   0.180   0.190   0.223   0.214   0.239   0.174   0.231   0.250   0.206   0.211   0.181   0.198   0.180   0.236   0.216   0.183   0.224   0.314   0.226   0.231   0.198   0.247   0.306   0.172   0.237   0.271   0.250   0.187   0.214   0.205   0.210   0.199   0.166   0.225   0.279   0.233   0.230
   176.00    0.197   0.221   0.163   0.220   0.216   0.200   0.227   0.202   0.186   0.165   0.235   0.235   0.174   0.181   0.187   0.185   0.251   0.241   0.200   0.184   0.190   0.201   0.216   0.235   0.207   0.182   0.207   0.196   0.219   0.239   0.235   0.224   0.192   0.223   0.207   0.212   0.205   0.180   0.249   0.274   0.303   0.300   0.256   0.302   0.291   0.242   0.230   0.285   0.308   0.221   0.184   0.210   0.204   0.191   0.211   0.174   0.231   0.241   0.218
   171.00    0.213   0.213   0.231   0.232   0.228   0.190   0.194   0.211   0.179   0.179   0.245   0.271   0.231   0.230   0.187   0.170   0.232   0.268   0.216   0.227   0.190   0.184   0.210   0.213   0.208   0.232   0.199   0.196   0.221   0.192   0.214   0.217   0.198   0.209   0.217   0.204   0.212   0.234   0.238   0.207   0.261   0.289   0.264   0.307   0.233   0.261   0.229   0.257   0.258   0.221   0.197   0.202   0.188   0.168   0.183   0.202   0.227   0.209   0.219
   166.00    0.187   0.187   0.189   0.168   0.184   0.194   0.169   0.187   0.193   0.183   0.225   0.198   0.204   0.207   0.202   0.172   0.285   0.351   0.201   0.230   0.193   0.197   0.210   0.198   0.161   0.200   0.202   0.202   0.190   0.185   0.156   0.223   0.185   0.190   0.225   0.278   0.265   0.202   0.209   0.221   0.254   0.289   0.320   0.285   0.221   0.180   0.199   0.217   0.213   0.182   0.178   0.195   0.217   0.193   0.218   0.203   0.226   0.234   0.189
   161.00    0.218   0.282   0.255   0.253   0.284   0.191   0.224   0.203   0.202   0.202   0.204   0.202   0.223   0.173   0.194   0.195   0.254   0.315   0.310   0.193   0.220   0.188   0.206   0.194   0.260   0.194   0.190   0.167   0.193   0.237   0.241   0.251   0.232   0.198   0.213   0.263   0.229   0.198   0.209   0.226   0.209   0.218   0.282   0.270   0.169   0.242   0.204   0.185   0.174   0.205   0.163   0.240   0.243   0.171   0.202   0.252   0.202   0.192   0.177
   156.00    0.230   0.260   0.247   0.274   0.250   0.211   0.262   0.188   0.201   0.219   0.192   0.222   0.266   0.241   0.221   0.218   0.273   0.233   0.280   0.254   0.200   0.237   0.192   0.207   0.221   0.204   0.211   0.232   0.206   0.209   0.178   0.214   0.178   0.222   0.165   0.204   0.219   0.250   0.176   0.207   0.188   0.214   0.229   0.270   0.201   0.192   0.259   0.156   0.223   0.227   0.251   0.247   0.215   0.176   0.228   0.228   0.209   0.221   0.181
   151.00    0.199   0.201   0.224   0.239   0.229   0.242   0.215   0.216   0.209   0.195   0.203   0.204   0.231   0.267   0.240   0.221   0.246   0.224   0.244   0.220   0.246   0.207   0.187   0.202   0.191   0.216   0.207   0.173   0.198   0.176   0.182   0.217   0.206   0.167   0.222   0.191   0.184   0.210   0.242   0.175   0.194   0.180   0.185   0.250   0.204   0.242   0.258   0.220   0.189   0.222   0.252   0.279   0.233   0.171   0.217   0.196   0.231   0.224   0.185
   146.00    0.204   0.176   0.204   0.195   0.214   0.224   0.155   0.171   0.210   0.172   0.198   0.196   0.236   0.296   0.242   0.213   0.195   0.189   0.220   0.256   0.223   0.170   0.174   0.235   0.213   0.222   0.190   0.205   0.190   0.218   0.173   0.199   0.184   0.262   0.170   0.191   0.169   0.268   0.283   0.219   0.178   0.207   0.192   0.221   0.230   0.226   0.249   0.203   0.263   0.171   0.186   0.231   0.265   0.159   0.252   0.272   0.290   0.211   0.249
   141.00    0.173   0.191   0.202   0.197   0.258   0.184   0.198   0.220   0.218   0.178   0.238   0.260   0.252   0.242   0.232   0.237   0.168   0.216   0.217   0.265   0.266   0.220   0.229   0.215   0.201   0.207   0.206   0.198   0.213   0.217   0.185   0.257   0.190   0.223   0.182   0.213   0.237   0.242   0.267   0.227   0.216   0.177   0.214   0.214   0.173   0.234   0.193   0.242   0.265   0.239   0.184   0.216   0.182   0.251   0.259   0.179   0.257   0.247   0.258
   136.00    0.189   0.231   0.188   0.239   0.260   0.265   0.208   0.210   0.228   0.252   0.230   0.198   0.207   0.206   0.202   0.202   0.186   0.222   0.259   0.287   0.243   0.224   0.214   0.199   0.213   0.231   0.190   0.205   0.185   0.181   0.177   0.261   0.220   0.228   0.211   0.243   0.254   0.182   0.251   0.176   0.189   0.225   0.216   0.185   0.286   0.198   0.209   0.241   0.244   0.228   0.169   0.213   0.225   0.252   0.289   0.287   0.250   0.218   0.214
   131.00    0.215   0.193   0.196   0.195   0.175   0.229   0.189   0.201   0.210   0.214   0.211   0.241   0.277   0.178   0.193   0.186   0.165   0.231   0.270   0.227   0.185   0.203   0.199   0.220   0.184   0.229   0.211   0.186   0.220   0.185   0.200   0.280   0.289   0.291   0.152   0.245   0.261   0.246   0.232   0.198   0.178   0.223   0.220   0.208   0.263   0.284   0.185   0.219   0.247   0.193   0.186   0.218   0.180   0.222   0.257   0.270   0.187   0.181   0.215
   126.00    0.191   0.188   0.189   0.173   0.208   0.223   0.251   0.217   0.171   0.207   0.225   0.234   0.259   0.227   0.192   0.189   0.189   0.187   0.205   0.217   0.178   0.176   0.190   0.207   0.202   0.189   0.214   0.221   0.193   0.208   0.206   0.252   0.223   0.234   0.242   0.180   0.250   0.180   0.187   0.185   0.227   0.263   0.211   0.185   0.209   0.189   0.216   0.203   0.221   0.209   0.226   0.215   0.192   0.248   0.270   0.267   0.146   0.203   0.199
   121.00    0.197   0.199   0.188   0.210   0.173   0.236   0.235   0.232   0.167   0.178   0.203   0.198   0.221   0.197   0.209   0.169   0.197   0.210   0.192   0.209   0.231   0.191   0.213   0.179   0.205   0.221   0.235   0.169   0.230   0.165   0.187   0.180   0.228   0.227   0.228   0.230   0.233   0.240   0.224   0.188   0.195   0.225   0.199   0.188   0.203   0.210   0.179   0.197   0.236   0.218   0.182   0.199   0.223   0.271   0.277   0.253   0.251   0.208   0.210
   116.00    0.198   0.186   0.203   0.198   0.214   0.221   0.193   0.178   0.193   0.173   0.167   0.226   0.177   0.181   0.188   0.206   0.226   0.178   0.187   0.217   0.182   0.205   0.210   0.193   0.254   0.165   0.220   0.238   0.191   0.208   0.211   0.190   0.207   0.228   0.177   0.195   0.218   0.196   0.196   0.219   0.185   0.215   0.154   0.182   0.191   0.222   0.184   0.207   0.189   0.213   0.209   0.220   0.190   0.254   0.275   0.256   0.203   0.185   0.219
   111.00    0.192   0.193   0.163   0.226   0.216   0.211   0.168   0.207   0.194   0.218   0.249   0.205   0.233   0.249   0.245   0.201   0.224   0.189   0.187   0.204   0.188   0.196   0.222   0.266   0.252   0.177   0.201   0.183   0.190   0.204   0.209   0.182   0.197   0.221   0.185   0.199   0.196   0.172   0.180   0.192   0.186   0.173   0.203   0.246   0.216   0.256   0.258   0.198   0.180   0.166   0.193   0.191   0.219   0.259   0.257   0.258   0.252   0.208   0.203
   106.00    0.259   0.186   0.213   0.201   0.202   0.202   0.218   0.178   0.263   0.273   0.242   0.196   0.236   0.203   0.203   0.229   0.171   0.207   0.211   0.187   0.200   0.249   0.205   0.275   0.179   0.210   0.216   0.217   0.206   0.222   0.196   0.239   0.239   0.262   0.251   0.238   0.215   0.223   0.157   0.212   0.172   0.204   0.193   0.181   0.238   0.204   0.206   0.196   0.195   0.233   0.181   0.211   0.165   0.217   0.265   0.284   0.221   0.200   0.185
   101.00    0.214   0.237   0.192   0.195   0.198   0.206   0.206   0.240   0.255   0.235   0.190   0.192   0.209   0.190   0.241   0.210   0.236   0.223   0.186   0.224   0.213   0.219   0.190   0.280   0.169   0.223   0.210   0.175   0.199   0.220   0.166   0.235   0.285   0.310   0.212   0.200   0.196   0.171   0.215   0.199   0.193   0.167   0.211   0.206   0.230   0.271   0.247   0.241   0.231   0.254   0.201   0.193   0.222   0.206   0.233   0.229   0.224   0.190   0.210
    96.00    0.200   0.225   0.178   0.178   0.173   0.206   0.216   0.168   0.191   0.233   0.181   0.172   0.203   0.178   0.209   0.202   0.161   0.232   0.277   0.224   0.233   0.183   0.184   0.237   0.230   0.235   0.186   0.214   0.185   0.186   0.183   0.223   0.244   0.267   0.283   0.225   0.210   0.207   0.195   0.214   0.213   0.225   0.281   0.284   0.222   0.246   0.262   0.184   0.202   0.234   0.202   0.260   0.175   0.191   0.224   0.182   0.205   0.264   0.219
    91.00    0.200   0.178   0.226   0.174   0.219   0.198   0.253   0.233   0.276   0.280   0.184   0.221   0.205   0.175   0.195   0.207   0.225   0.233   0.242   0.199   0.187   0.243   0.196   0.208   0.273   0.189   0.235   0.228   0.192   0.182   0.216   0.241   0.212   0.256   0.254   0.238   0.224   0.241   0.223   0.192   0.205   0.198   0.196   0.239   0.238   0.204   0.247   0.209   0.170   0.219   0.217   0.216   0.253   0.190   0.224   0.212   0.249   0.291   0.247
    86.00    0.194   0.184   0.202   0.200   0.240   0.229   0.227   0.299   0.272   0.248   0.227   0.268   0.187   0.190   0.177   0.185   0.210   0.206   0.193   0.261   0.215   0.220   0.207   0.235   0.224   0.246   0.216   0.213   0.235   0.195   0.215   0.205   0.218   0.228   0.202   0.189   0.188   0.197   0.196   0.177   0.176   0.180   0.197   0.179   0.210   0.202   0.228   0.180   0.203   0.183   0.230   0.270   0.259   0.177   0.200   0.255   0.224   0.274   0.260
    81.00    0.213   0.198   0.185   0.204   0.235   0.203   0.227   0.267   0.306   0.321   0.324   0.217   0.202   0.160   0.220   0.215   0.232   0.224   0.243   0.250   0.209   0.192   0.231   0.202   0.213   0.185   0.198   0.191   0.196   0.213   0.227   0.185   0.202   0.219   0.180   0.185   0.204   0.184   0.248   0.212   0.199   0.163   0.199   0.191   0.191   0.206   0.258   0.215   0.214   0.230   0.193   0.251   0.233   0.215   0.193   0.252   0.264   0.238   0.230
    76.00    0.230   0.222   0.169   0.178   0.218   0.234   0.243   0.241   0.250   0.270   0.261   0.284   0.250   0.223   0.238   0.221   0.196   0.223   0.236   0.247   0.200   0.184   0.220   0.231   0.209   0.210   0.183   0.212   0.233   0.181   0.225   0.270   0.281   0.261   0.241   0.212   0.219   0.233   0.218   0.200   0.181   0.190   0.215   0.187   0.210   0.178   0.235   0.214   0.196   0.210   0.243   0.256   0.256   0.198   0.229   0.202   0.215   0.199   0.205
    71.00    0.173   0.241   0.224   0.223   0.220   0.223   0.196   0.191   0.230   0.221   0.238   0.259   0.263   0.219   0.180   0.215   0.204   0.179   0.205   0.204   0.237   0.228   0.255   0.258   0.322   0.281   0.201   0.256   0.173   0.205   0.190   0.238   0.219   0.187   0.209   0.208   0.198   0.202   0.200   0.164   0.221   0.203   0.213   0.280   0.248   0.176   0.208   0.225   0.243   0.193   0.177   0.203   0.223   0.220   0.173   0.157   0.195   0.188   0.210
    66.00    0.211   0.246   0.207   0.232   0.176   0.183   0.177   0.193   0.227   0.188   0.196   0.181   0.201   0.199   0.195   0.214   0.199   0.201   0.168   0.233   0.292   0.210   0.246   0.280   0.296   0.246   0.209   0.221   0.261   0.229   0.235   0.256   0.196   0.206   0.231   0.170   0.187   0.234   0.205   0.210   0.216   0.177   0.217   0.215   0.252   0.178   0.193   0.216   0.212   0.180   0.235   0.241   0.231   0.197   0.261   0.239   0.259   0.219   0.203
    61.00    0.183   0.215   0.197   0.225   0.233   0.210   0.236   0.231   0.215   0.216   0.199   0.253   0.225   0.201   0.199   0.190   0.185   0.209   0.198   0.218   0.275   0.200   0.181   0.233   0.268   0.258   0.185   0.182   0.263   0.173   0.197   0.248   0.223   0.211   0.209   0.203   0.202   0.184   0.202   0.240   0.227   0.212   0.188   0.218   0.232   0.216   0.207   0.194   0.180   0.179   0.221   0.234   0.227   0.234   0.265   0.219   0.207   0.246   0.241
    56.00    0.203   0.202   0.208   0.175   0.220   0.228   0.254   0.184   0.202   0.227   0.191   0.202   0.194   0.173   0.208   0.180   0.241   0.220   0.167   0.199   0.233   0.259   0.240   0.265   0.287   0.211   0.196   0.181   0.226   0.234   0.223   0.206   0.218   0.252   0.204   0.210   0.186   0.232   0.181   0.197   0.181   0.219   0.223   0.210   0.196   0.234   0.199   0.200   0.190   0.246   0.185   0.248   0.154   0.226   0.293   0.181   0.179   0.190   0.249
    51.00    0.206   0.181   0.248   0.183   0.257   0.233   0.238   0.187   0.179   0.211   0.213   0.162   0.193   0.216   0.166   0.210   0.227   0.179   0.224   0.233   0.192   0.185   0.200   0.280   0.264   0.224   0.226   0.167   0.209   0.239   0.171   0.174   0.189   0.201   0.207   0.196   0.212   0.210   0.209   0.221   0.197   0.220   0.203   0.234   0.161   0.242   0.262   0.237   0.229   0.204   0.230   0.287   0.275   0.205   0.250   0.310   0.185   0.241   0.263
    46.00    0.262   0.294   0.216   0.235   0.260   0.228   0.245   0.214   0.234   0.196   0.190   0.216   0.164   0.196   0.185   0.226   0.211   0.208   0.174   0.242   0.148   0.189   0.215   0.238   0.221   0.216   0.206   0.157   0.177   0.211   0.165   0.209   0.232   0.184   0.201   0.186   0.218   0.190   0.226   0.200   0.191   0.196   0.222   0.189   0.273   0.266   0.201   0.194   0.236   0.192   0.226   0.274   0.189   0.184   0.261   0.321   0.295   0.263   0.230
    41.00    0.237   0.244   0.244   0.244   0.249   0.232   0.276   0.190   0.175   0.244   0.188   0.230   0.242   0.227   0.233   0.261   0.228   0.182   0.187   0.226   0.192   0.238   0.213   0.177   0.208   0.231   0.241   0.226   0.228   0.186   0.251   0.217   0.212   0.248   0.176   0.253   0.226   0.183   0.201   0.201   0.216   0.173   0.237   0.248   0.248   0.281   0.249   0.184   0.226   0.165   0.216   0.264   0.208   0.205   0.241   0.297   0.260   0.245   0.236
    36.00    0.197   0.186   0.221   0.184   0.234   0.242   0.269   0.230   0.258   0.240   0.200   0.187   0.199   0.216   0.215   0.241   0.213   0.181   0.180   0.235   0.222   0.197   0.192   0.234   0.168   0.216   0.199   0.191   0.184   0.187   0.254   0.263   0.267   0.261   0.202   0.225   0.270   0.174   0.208   0.184   0.224   0.246   0.290   0.218   0.178   0.252   0.258   0.249   0.186   0.191   0.235   0.215   0.188   0.233   0.163   0.251   0.295   0.283   0.265
    31.00    0.215   0.197   0.220   0.195   0.280   0.172   0.265   0.238   0.244   0.215   0.183   0.172   0.227   0.196   0.183   0.198   0.188   0.187   0.240   0.224   0.220   0.248   0.189   0.197   0.212   0.163   0.173   0.201   0.179   0.233   0.253   0.197   0.222   0.175   0.235   0.175   0.218   0.230   0.218   0.198   0.216   0.221   0.260   0.182   0.239   0.271   0.271   0.223   0.236   0.208   0.182   0.173   0.220   0.243   0.245   0.235   0.244   0.259   0.223
    26.00    0.175   0.186   0.186   0.214   0.226   0.215   0.227   0.247   0.206   0.201   0.199   0.177   0.214   0.230   0.195   0.207   0.177   0.252   0.217   0.230   0.193   0.172   0.206   0.207   0.187   0.211   0.231   0.284   0.236   0.229   0.237   0.225   0.253   0.245   0.221   0.206   0.199   0.213   0.174   0.195   0.247   0.180   0.228   0.247   0.226   0.195   0.207   0.178   0.198   0.247   0.175   0.190   0.240   0.202   0.218   0.201   0.232   0.247   0.215
    21.00    0.176   0.227   0.194   0.198   0.195   0.183   0.239   0.174   0.218   0.197   0.186   0.193   0.173   0.172   0.214   0.181   0.194   0.258   0.179   0.266   0.189   0.188   0.195   0.209   0.226   0.195   0.169   0.258   0.290   0.207   0.233   0.218   0.248   0.257   0.215   0.247   0.224   0.193   0.220   0.241   0.202   0.201   0.214   0.243   0.189   0.206   0.170   0.193   0.208   0.207   0.193   0.158   0.207   0.208   0.189   0.218   0.249   0.189   0.194
    16.00    0.218   0.174   0.188   0.237   0.147   0.240   0.212   0.227   0.211   0.200   0.200   0.211   0.176   0.238   0.207   0.186   0.218   0.204   0.239   0.296   0.261   0.183   0.188   0.248   0.168   0.215   0.207   0.224   0.255   0.220   0.191   0.173   0.219   0.217   0.206   0.216   0.198   0.203   0.221   0.217   0.239   0.200   0.190   0.210   0.198   0.229   0.197   0.194   0.171   0.230   0.191   0.212   0.191   0.242   0.180   0.251   0.219   0.185   0.204
    11.00    0.205   0.191   0.207   0.213   0.225   0.195   0.241   0.203   0.193   0.217   0.187   0.228   0.229   0.177   0.211   0.169   0.249   0.295   0.236   0.273   0.269   0.237   0.191   0.229   0.176   0.220   0.169   0.217   0.205   0.197   0.194   0.206   0.203   0.259   0.227   0.291   0.241   0.190   0.205   0.168   0.195   0.193   0.207   0.221   0.191   0.203   0.198   0.211   0.198   0.173   0.184   0.210   0.212   0.230   0.236   0.260   0.206   0.190   0.200
     6.00    0.193   0.238   0.174   0.201   0.226   0.180   0.205   0.225   0.195   0.184   0.169   0.214   0.264   0.261   0.196   0.237   0.242   0.261   0.282   0.300   0.273   0.193   0.206   0.237   0.202   0.201   0.225   0.228   0.190   0.202   0.160   0.186   0.219   0.255   0.276   0.263   0.271   0.241   0.177   0.256   0.249   0.213   0.249   0.239   0.176   0.241   0.212   0.184   0.197   0.190   0.219   0.229   0.195   0.231   0.192   0.237   0.185   0.243   0.197
     1.00    0.219   0.218   0.232   0.171   0.196   0.209   0.217   0.249   0.274   0.265   0.270   0.269   0.286   0.209   0.185   0.205   0.226   0.259   0.267   0.252   0.274   0.164   0.216   0.256   0.205   0.208   0.218   0.197   0.240   0.184   0.183   0.198   0.182   0.217   0.254   0.215   0.237   0.263   0.285   0.282   0.262   0.203   0.183   0.236   0.221   0.210   0.246   0.206   0.208   0.199   0.205   0.206   0.237   0.263   0.275   0.212   0.208   0.239   0.242

   Mean standard deviation across all grid points:
      u component:    0.244 m/s
      v component:    0.277 m/s
      w component:    0.216 m/s


U-component (X) statistics from the interpolated hub point:

   Mean =   5.2698 m/s
   TI   =   3.7262 %


Processing complete.  591.84 CPU seconds used.
